case_ei5k_v10_g524.m
function mpc = case_ei5k_v10_g524
%CASE_EI5K_V10_G524
%The EI 5k updated model data
%------------------------------------------------------------
%Created by:    Yujia Zhu 
%Email:         yzhu54@asu.edu
%------------------------------------------------------------
% Note: Updated MATPOWER case file with low impedance line eliminated 
%
%2/24/14  - Ray Z : Cleaned up using savecase(), from
%                   EI_5k_updated_pmax_modified.m received from Yujia Zhu
%                   2/21/14. Should be same as v4 (created by Di Shi based
%                   on the 2011Sum_2010Series_EnergyVisual Data, modified
%                   by Yujia Zhu) with low impedance lines eliminated and
%                   corresponding buses merged, and Pmin on DC lines set to zero.
%5/16/14  - Ray Z : Replaced gen data with full v5.2.4 gen data,
%                   including mpc.genfuel, mpc.gen_aux_data
%                   (see IDX_GEN_AUX for details).
%6/9/14   - Ray Z : Updated with gen dispatches from solved DC OPF of
%                   case_ei62k_v6_g524.m (case_ei62k_v6_g524_soln.m)
%                   and loads redistributed accordingly (from 6/1/14 corrected
%                   version from Yujia).

%% MATPOWER Case Format : Version 2
mpc.version = '2';

%%-----  Power Flow Data  -----%%
%% system MVA base
mpc.baseMVA = 100;

%% bus data
%	bus_i	type	Pd	Qd	Gs	Bs	area	Vm	Va	baseKV	zone	Vmax	Vmin
mpc.bus = [
	100001	1	0	0	0	0	101	1	2.96808	345	100	1.1	0.9;
	100002	2	367.646577	0	0	0	101	1	-4.08201	345	100	1.1	0.9;
	100003	2	490.613572	0	0	0	101	1	-9.65623	345	100	1.1	0.9;
	100004	1	0	0	0	0	101	1	12.01259	345	100	1.1	0.9;
	100086	1	0	0	0	0	101	1	-18.86982	345	100	1.1	0.9;
	100087	2	636.829153	0	0	0	101	1	-24.0076	345	100	1.1	0.9;
	100088	2	18.5359898	0	0	0	101	1	-23.75423	345	100	1.1	0.9;
	100089	2	658.905362	0	0	0	101	1	-27.82049	345	100	1.1	0.9;
	100090	1	0	0	0	0	101	1	-29.30462	345	100	1.1	0.9;
	100091	1	24.5578956	0	0	0	101	1	-18.85425	345	100	1.1	0.9;
	104003	2	178.875885	0	0	0	101	1	-51.5078	230	104	1.1	0.9;
	104059	1	0	0	0	0	101	1	-38.42694	345	144	1.1	0.9;
	104063	1	0	0	0	0	101	1	-38.15582	345	144	1.1	0.9;
	104079	2	0	0	0	0	101	1	-42.79872	345	104	1.1	0.9;
	104080	2	11.3681453	0	0	0	101	1	-42.60458	345	104	1.1	0.9;
	104095	2	340.452542	0	0	0	101	1	-44.00695	345	104	1.1	0.9;
	104111	2	603.363602	0	0	0	101	1	-54.30693	230	104	1.1	0.9;
	104113	1	0	0	0	0	101	1	-54.80239	230	144	1.1	0.9;
	104119	1	105.419959	0	0	0	101	1	-45.58259	345	104	1.1	0.9;
	104127	2	53.5490813	0	0	0	101	1	-46.41808	345	104	1.1	0.9;
	104135	1	0	0	0	0	101	1	-49.87492	345	144	1.1	0.9;
	104143	2	697.407132	0	0	0	101	1	-48.96117	345	104	1.1	0.9;
	104151	1	49.6360068	0	0	0	101	1	-52.45006	345	104	1.1	0.9;
	104159	1	0	0	0	0	101	1	-54.77129	345	144	1.1	0.9;
	104167	1	103.793015	0	0	0	101	1	-51.76517	345	104	1.1	0.9;
	104175	2	172.28172	0	0	0	101	1	-56.44738	345	104	1.1	0.9;
	104183	1	0	0	0	0	101	1	-57.66844	345	144	1.1	0.9;
	104191	1	0	0	0	0	101	1	-59.91851	345	144	1.1	0.9;
	104195	1	0	0	0	0	101	1	-60.94753	345	144	1.1	0.9;
	106002	1	0	0	0	0	101	1	-51.77184	230	105	1.1	0.9;
	106003	2	63.2834669	0	0	0	101	1	-51.77184	230	105	1.1	0.9;
	106004	2	0.03109934	0	0	0	101	1	-51.76341	230	105	1.1	0.9;
	106005	2	0.03087648	0	0	0	101	1	-51.76223	230	105	1.1	0.9;
	106006	2	0.03103457	0	0	0	101	1	-51.76263	230	105	1.1	0.9;
	106007	2	0.03111888	0	0	0	101	1	-51.76283	230	105	1.1	0.9;
	106008	1	0	0	0	0	101	1	-51.50683	230	105	1.1	0.9;
	106009	2	13.8519235	0	0	0	101	1	-51.43588	230	105	1.1	0.9;
	106010	2	6.49373803	0	0	0	101	1	-51.47206	230	105	1.1	0.9;
	106012	1	0	0	0	0	101	1	-56.89833	230	105	1.1	0.9;
	106013	1	0	0	0	0	101	1	-55.99832	230	105	1.1	0.9;
	106014	2	6.43602564	0	0	0	101	1	-55.51944	230	105	1.1	0.9;
	106015	2	6.43599867	0	0	0	101	1	-56.41944	230	105	1.1	0.9;
	107000	2	78.5390027	0	0	0	101	1	-57.9265	345	107	1.1	0.9;
	107010	2	204.730246	0	0	0	101	1	-60.46751	345	107	1.1	0.9;
	107020	2	78.6667696	0	0	0	101	1	-61.51489	345	107	1.1	0.9;
	107030	2	220.289286	0	0	0	101	1	-62.13637	345	107	1.1	0.9;
	107040	1	65.6812412	0	0	0	101	1	-58.88949	345	107	1.1	0.9;
	107050	1	27.4171559	0	0	0	101	1	-59.46296	345	107	1.1	0.9;
	107100	2	182.6002	0	0	0	101	1	-55.89578	230	107	1.1	0.9;
	107324	2	235.352901	0	0	0	101	1	-46.53922	115	107	1.1	0.9;
	107326	1	34.0434645	0	0	0	101	1	-83.46142	120	107	1.1	0.9;
	110756	2	471.941749	0	0	0	101	1	-62.96759	345	110	1.1	0.9;
	110757	1	184.313365	0	0	0	101	1	-63.51857	345	110	1.1	0.9;
	110758	2	458.860494	0	0	0	101	1	-63.08373	345	110	1.1	0.9;
	110759	2	179.612627	0	0	0	101	1	-63.05795	345	110	1.1	0.9;
	110766	1	406.476076	0	0	0	101	1	-63.20818	345	110	1.1	0.9;
	110770	1	0	0	0	0	101	1	-67.66537	345	110	1.1	0.9;
	110773	1	0	0	0	0	101	1	-66.44224	345	110	1.1	0.9;
	110774	2	5.70594623	0	0	0	101	1	-66.41046	345	110	1.1	0.9;
	110780	2	326.069389	0	0	0	101	1	-69.1143	345	110	1.1	0.9;
	110781	2	940.177586	0	0	0	101	1	-70.67673	345	110	1.1	0.9;
	110782	1	0	0	0	0	101	1	-71.41118	345	110	1.1	0.9;
	110783	2	26.2600688	0	0	0	101	1	-70.93329	345	110	1.1	0.9;
	110785	2	13.3669326	0	0	0	101	1	-66.12218	345	110	1.1	0.9;
	110786	1	0	0	0	0	101	1	-70.33678	345	110	1.1	0.9;
	110788	1	359.089343	0	0	0	101	1	-70.64413	345	110	1.1	0.9;
	110789	1	424.647211	0	0	0	101	1	-74.28573	230	110	1.1	0.9;
	110790	1	170.252964	0	0	0	101	1	-70.3244	345	110	1.1	0.9;
	110793	1	0	0	0	0	101	1	-70.24806	230	110	1.1	0.9;
	110794	1	0	0	0	0	101	1	-69.96489	230	110	1.1	0.9;
	110795	1	416.010282	0	0	0	101	1	-72.60772	230	110	1.1	0.9;
	110862	1	260.829237	0	0	0	101	1	-70.3208	345	110	1.1	0.9;
	111133	2	517.088544	0	0	0	101	1	-72.05639	345	110	1.1	0.9;
	111134	1	278.291069	0	0	0	101	1	-74.13226	345	110	1.1	0.9;
	111193	1	556.985941	0	0	0	101	1	-73.10338	345	110	1.1	0.9;
	113001	2	421.083727	0	0	0	101	1	-64.76183	230	111	1.1	0.9;
	113094	2	0.62800578	0	0	0	101	1	-64.53626	230	111	1.1	0.9;
	113095	1	0.63803214	0	0	0	101	1	-64.76234	230	111	1.1	0.9;
	113263	2	345.675636	0	0	0	101	1	-66.83994	345	111	1.1	0.9;
	113264	1	0	0	0	0	101	1	-65.66279	345	111	1.1	0.9;
	113265	1	455.521998	0	0	0	101	1	-63.77247	345	111	1.1	0.9;
	113266	2	260.206737	0	0	0	101	1	-67.5373	230	111	1.1	0.9;
	113950	1	334.146862	0	0	0	101	1	-58.6707	345	111	1.1	0.9;
	113951	1	0	0	0	0	101	1	-60.43213	345	111	1.1	0.9;
	113952	2	403.304209	0	0	0	101	1	-56.72421	345	111	1.1	0.9;
	113955	2	757.059715	0	0	0	101	1	-62.00083	230	111	1.1	0.9;
	114063	1	99.3322837	0	0	0	101	1	-53.984	345	111	1.1	0.9;
	114071	1	0	0	0	0	101	1	-58.61914	345	111	1.1	0.9;
	114072	1	0	0	0	0	101	1	-58.61914	345	111	1.1	0.9;
	114398	1	0	0	0	0	101	1	-62.97907	345	111	1.1	0.9;
	114476	2	1055.73525	0	0	0	101	1	-62.85465	345	111	1.1	0.9;
	114734	2	682.66483	0	0	0	101	1	-63.60804	345	111	1.1	0.9;
	114735	1	14.4180858	0	0	0	101	1	-67.39071	345	111	1.1	0.9;
	115446	2	909.678833	0	0	0	101	1	-71.30186	345	111	1.1	0.9;
	115447	1	211.503601	0	0	0	101	1	-71.14287	345	111	1.1	0.9;
	116009	1	0	0	0	0	101	1	-62.64431	345	112	1.1	0.9;
	116011	2	0.53547387	0	0	0	101	1	-62.59855	345	112	1.1	0.9;
	116013	1	0.66010459	0	0	0	101	1	-62.64437	345	112	1.1	0.9;
	116023	2	334.392886	0	0	0	101	1	-66.87709	345	112	1.1	0.9;
	116034	1	0	0	0	0	101	1	-68.05724	345	144	1.1	0.9;
	116045	2	800.997815	0	0	0	101	1	-68.82737	345	112	1.1	0.9;
	116048	2	0	0	0	0	101	1	-68.39296	345	112	1.1	0.9;
	116059	1	0	0	0	0	101	1	-68.57234	345	144	1.1	0.9;
	116070	1	0	0	0	0	101	1	-72.39933	345	144	1.1	0.9;
	117001	1	380.712648	0	0	0	101	1	-67.27358	345	114	1.1	0.9;
	117002	2	14.0880415	0	0	0	101	1	-66.3887	345	114	1.1	0.9;
	117301	2	1250.41102	0	0	0	101	1	-69.52509	345	114	1.1	0.9;
	118089	1	0	0	0	0	101	1	-65.96931	230	144	1.1	0.9;
	118091	1	0	0	0	0	101	1	-67.4426	345	144	1.1	0.9;
	118092	1	0	0	0	0	101	1	-69.16984	345	144	1.1	0.9;
	118094	1	0	0	0	0	101	1	-61.75748	345	144	1.1	0.9;
	118096	1	0	0	0	0	101	1	-68.81765	345	144	1.1	0.9;
	118097	1	0	0	0	0	101	1	-71.54913	345	144	1.1	0.9;
	118098	1	0	0	0	0	101	1	-67.40082	345	144	1.1	0.9;
	118099	1	0	0	0	0	101	1	-66.40498	345	144	1.1	0.9;
	118122	1	0	0	0	0	101	1	-71.22876	345	144	1.1	0.9;
	119025	1	0	0	0	0	101	1	-67.0303	345	144	1.1	0.9;
	119038	2	156.233213	0	0	0	101	1	-67.51341	345	116	1.1	0.9;
	119051	2	18.1347663	0	0	0	101	1	-67.51354	345	116	1.1	0.9;
	119064	2	189.487183	0	0	0	101	1	-74.53529	345	116	1.1	0.9;
	119077	2	656.085504	0	0	0	101	1	-78.01469	345	116	1.1	0.9;
	119090	1	0	0	0	0	101	1	-77.78817	345	116	1.1	0.9;
	119103	2	247.571463	0	0	0	101	1	-76.63506	345	116	1.1	0.9;
	119116	2	659.085345	0	0	0	101	1	-78.90363	345	116	1.1	0.9;
	119129	1	0	0	0	0	101	1	-82.25825	345	116	1.1	0.9;
	119142	1	0	0	0	0	101	1	-86.50181	345	116	1.1	0.9;
	119155	1	13.4900662	0	0	0	101	1	-86.51842	345	116	1.1	0.9;
	119168	1	0	0	0	0	101	1	-85.56588	345	116	1.1	0.9;
	119181	2	585.970677	0	0	0	101	1	-79.5186	345	116	1.1	0.9;
	119194	2	89.5919747	0	0	0	101	1	-75.74473	345	116	1.1	0.9;
	119207	1	0	0	0	0	101	1	-83.54706	345	116	1.1	0.9;
	119209	2	524.926452	0	0	0	101	1	-83.57013	345	116	1.1	0.9;
	119220	1	0	0	0	0	101	1	-87.15671	345	116	1.1	0.9;
	119233	2	959.830593	0	0	0	101	1	-89.13905	345	116	1.1	0.9;
	119246	2	470.392619	0	0	0	101	1	-90.85956	345	116	1.1	0.9;
	119259	1	0	0	0	0	101	1	-91.85367	345	116	1.1	0.9;
	119272	1	0	0	0	0	101	1	-91.61639	345	144	1.1	0.9;
	119285	2	497.989121	0	0	0	101	1	-93.06321	345	116	1.1	0.9;
	119311	1	0	0	0	0	101	1	-93.0321	345	116	1.1	0.9;
	119324	1	0	0	0	0	101	1	-92.78633	345	116	1.1	0.9;
	119337	1	0	0	0	0	101	1	-92.58308	345	116	1.1	0.9;
	119350	4	0	0	0	0	101	1	0	345	116	1.1	0.9;
	119376	1	0	0	0	0	101	1	-89.28727	345	144	1.1	0.9;
	119389	2	584.810316	0	0	0	101	1	-90.97432	345	116	1.1	0.9;
	119402	1	0	0	0	0	101	1	-91.07318	345	144	1.1	0.9;
	119415	1	0	0	0	0	101	1	-91.07318	345	144	1.1	0.9;
	119480	1	445.692103	0	0	0	101	1	-92.40161	345	116	1.1	0.9;
	123626	2	676.100674	0	0	0	101	1	-91.31819	345	117	1.1	0.9;
	123636	2	557.896435	0	0	0	101	1	-89.84858	345	117	1.1	0.9;
	125000	2	180.675252	0	0	0	102	1	-82.86721	345	154	1.1	0.9;
	125001	2	208.416752	0	0	0	102	1	-89.1514	345	154	1.1	0.9;
	125002	2	51.4919847	0	0	0	102	1	-88.42137	345	154	1.1	0.9;
	126250	1	0	0	0	0	102	1	-69.75962	500	176	1.1	0.9;
	126260	2	20.597041	0	0	0	102	1	-97.09742	345	176	1.1	0.9;
	126261	2	235.217248	0	0	0	102	1	-97.03218	345	176	1.1	0.9;
	126262	2	125.461701	0	0	0	102	1	-98.21289	345	167	1.1	0.9;
	126263	1	0	0	0	0	102	1	-98.69585	345	167	1.1	0.9;
	126265	2	232.505962	0	0	0	102	1	-116.77196	345	159	1.1	0.9;
	126267	1	194.417279	0	0	0	102	1	-103.1477	345	169	1.1	0.9;
	126268	1	190.768579	0	0	0	102	1	-103.08892	345	169	1.1	0.9;
	126269	1	190.803885	0	0	0	102	1	-103.0995	345	169	1.1	0.9;
	126270	1	197.451194	0	0	0	102	1	-103.10717	345	169	1.1	0.9;
	126272	1	259.630239	0	0	0	102	1	-117.90603	345	159	1.1	0.9;
	126273	1	259.011213	0	0	0	102	1	-117.9068	345	159	1.1	0.9;
	126274	2	578.492122	0	0	0	102	1	-117.89225	345	159	1.1	0.9;
	126275	2	444.066721	0	0	0	102	1	-117.91423	345	159	1.1	0.9;
	126278	1	0	0	0	0	102	1	-87.46235	345	159	1.1	0.9;
	126279	1	0	0	0	0	102	1	-87.85508	345	159	1.1	0.9;
	126280	2	2069.86707	0	0	0	102	1	-117.85162	345	159	1.1	0.9;
	126281	2	659.999403	0	0	0	102	1	-91.8584	345	167	1.1	0.9;
	126282	2	887.167115	0	0	0	102	1	-116.97792	345	159	1.1	0.9;
	126283	1	0	0	0	0	102	1	-116.97874	345	159	1.1	0.9;
	126284	1	0	0	0	0	102	1	-81.34484	345	159	1.1	0.9;
	126285	1	0	0	0	0	102	1	-116.83189	345	159	1.1	0.9;
	126287	2	1864.85948	0	0	0	102	1	-117.65975	345	159	1.1	0.9;
	126288	2	33.9853582	0	0	0	102	1	-98.09597	345	167	1.1	0.9;
	126290	1	0	0	0	0	102	1	-97.4973	345	176	1.1	0.9;
	126291	1	162.33093	0	0	0	102	1	-100.6308	345	167	1.1	0.9;
	126292	1	40.5302442	0	0	0	102	1	-100.70892	345	169	1.1	0.9;
	126293	1	40.5317173	0	0	0	102	1	-100.88197	345	169	1.1	0.9;
	126294	2	189.144669	0	0	0	102	1	-90.86314	345	176	1.1	0.9;
	126295	2	800.12384	0	0	0	102	1	-117.4623	345	159	1.1	0.9;
	126296	1	0	0	0	0	102	1	-71.81432	345	176	1.1	0.9;
	126297	2	569.598285	0	0	0	102	1	-97.64485	345	176	1.1	0.9;
	126298	1	362.244051	0	0	0	102	1	-105.13289	345	169	1.1	0.9;
	126301	1	293.06622	0	0	0	102	1	-105.6218	345	159	1.1	0.9;
	126304	1	1153.04596	0	0	0	102	1	-117.88826	345	159	1.1	0.9;
	126305	1	0	0	0	0	102	1	-96.63686	345	167	1.1	0.9;
	126306	1	0	0	0	0	102	1	-97.89358	345	167	1.1	0.9;
	126320	1	0	0	0	0	102	1	-81.12719	230	159	1.1	0.9;
	126321	1	0	0	0	0	102	1	-78.17363	230	159	1.1	0.9;
	126343	2	3134.28649	0	0	0	102	1	-105.23636	345	169	1.1	0.9;
	126517	1	0	0	0	0	102	1	-116.58182	345	169	1.1	0.9;
	126518	1	0	0	0	0	102	1	-116.58182	345	169	1.1	0.9;
	126600	1	0	0	0	0	102	1	-116.351	345	169	1.1	0.9;
	126601	1	0	0	0	0	102	1	-116.27235	345	169	1.1	0.9;
	126641	1	283.646805	0	0	0	102	1	-117.20017	345	159	1.1	0.9;
	126847	1	-107.409261	0	0	0	102	1	-105.13884	345	159	1.1	0.9;
	128252	1	0	0	0	0	102	1	-117.66014	345	159	1.1	0.9;
	128822	1	380.346213	0	0	0	102	1	-108.69083	345	156	1.1	0.9;
...
];

%% generator data
%	bus	Pg	Qg	Qmax	Qmin	Vg	mBase	status	Pmax	Pmin	Pc1	Pc2	Qc1min	Qc1max	Qc2min	Qc2max	ramp_agc	ramp_10	ramp_30	ramp_q	apf
mpc.gen = [
	100087	6.8	-0.5	0.5	-0.5	1.04	6.8	1	6.8	0	0	0	0	0	0	0	0	0	0	0	0;
	100003	0.7	0	0.35	-0.35	1	100	1	0.7	0	0	0	0	0	0	0	0	0	0	0	0;
	100003	3.5	0	1.75	-1.75	1	100	1	3.5	0	0	0	0	0	0	0	0	0	0	0	0;
	100089	0.4	0	0.2	-0.2	1	100	1	0.4	0.026368582	0	0	0	0	0	0	0	0	0	0	0;
	100087	0.1	0	0.05	-0.05	1	100	1	0.1	0	0	0	0	0	0	0	0	0	0	0	0;
	100087	0.8	0	0.4	-0.4	1	100	1	0.8	0	0	0	0	0	0	0	0	0	0	0	0;
	100087	1.5	0	0.75	-0.75	1	100	1	1.5	0	0	0	0	0	0	0	0	0	0	0	0;
	100003	66	0	33	-33	1	100	1	66	0	0	0	0	0	0	0	0	0	0	0	0;
	100003	66	0	33	-33	1	100	1	66	0	0	0	0	0	0	0	0	0	0	0	0;
	100003	16.8	0	7.2	0	1.05	16.67	1	16.8	0	0	0	0	0	0	0	0	0	0	0	0;
	100003	33.031	0	14.5	0	1.05	33.33	1	35	0	0	0	0	0	0	0	0	0	0	0	0;
	100003	33	0	14.5	0	1.05	33.33	1	34.2	0	0	0	0	0	0	0	0	0	0	0	0;
	100087	0.5	0	0.25	-0.25	1	100	1	0.5	0	0	0	0	0	0	0	0	0	0	0	0;
	100087	0.9	0	0.45	-0.45	1	100	1	0.9	0	0	0	0	0	0	0	0	0	0	0	0;
	100087	1.1	0	0.55	-0.55	1	100	1	1.1	0	0	0	0	0	0	0	0	0	0	0	0;
	100087	1.1	0	0.55	-0.55	1	100	1	1.1	0	0	0	0	0	0	0	0	0	0	0	0;
	100087	1.2	0	0.6	-0.6	1	100	1	1.2	0	0	0	0	0	0	0	0	0	0	0	0;
	100003	1.8	0	0.9	-0.9	1	100	1	1.8	0	0	0	0	0	0	0	0	0	0	0	0;
	100003	2	0	1	-1	1	100	1	2	0.131842908	0	0	0	0	0	0	0	0	0	0	0;
	100003	27.4	-3.69	11.6	-4.5	1.04	30	1	27.4	22.3259259	0	0	0	0	0	0	0	0	0	0	0;
	100003	3.6	0	1.8	-1.8	1	100	1	3.6	0	0	0	0	0	0	0	0	0	0	0	0;
	100003	26.421	-3.7	11.6	-4.5	1.04	34.55	1	29.9	27.5830258	0	0	0	0	0	0	0	0	0	0	0;
	100003	25.7	-3.7	11.6	-4.5	1.04	26.67	1	25.7	19.2244094	0	0	0	0	0	0	0	0	0	0	0;
	100003	8.01	0	4.1	-4.1	1	100	1	8.2	0	0	0	0	0	0	0	0	0	0	0	0;
	100003	6.01	0	3.35	-3.35	1	100	1	6.7	0	0	0	0	0	0	0	0	0	0	0	0;
	100089	0	2.95	14	-14	1.04	56.87	1	51.8	13.942029	0	0	0	0	0	0	0	0	0	0	0;
	100089	0	2.96	14	-14	1.04	56.87	1	51.1	13.7536232	0	0	0	0	0	0	0	0	0	0	0;
	100089	0	5.91	55	-44	1.04	133.69	1	125	35	0	0	0	0	0	0	0	0	0	0	0;
	100088	14.2	0	7.1	-7.1	1	100	1	14.2	0	0	0	0	0	0	0	0	0	0	0	0;
	100088	0	242	242	-209	1.03	680	1	636	70	0	0	0	0	0	0	0	0	0	0	0;
	100087	39.6	3	3	3	1.04	44	1	39.6	20.5714286	0	0	0	0	0	0	0	0	0	0	0;
	100003	1.8	0	0.9	-0.9	1	100	1	1.8	0	0	0	0	0	0	0	0	0	0	0	0;
	100003	34.875	-19.13	25	-22	1.03	55.29	1	47.1	0	0	0	0	0	0	0	0	0	0	0	0;
	100087	0	9.33	37.3	-26.5	1.04	68.8	1	54.5	0	0	0	0	0	0	0	0	0	0	0	0;
	100087	0	9.33	37.3	-26.5	1.04	68.8	1	54.5	0	0	0	0	0	0	0	0	0	0	0	0;
	100087	0	9.33	37.3	-26.5	1.04	68.8	1	54.5	0	0	0	0	0	0	0	0	0	0	0	0;
	100087	179.4	55.71	120	-70	1.04	211	1	179.4	0	0	0	0	0	0	0	0	0	0	0	0;
	100087	95.1	29.99	70	-40	1.04	111.9	1	95.1	0	0	0	0	0	0	0	0	0	0	0	0;
	100089	184.2	43.49	109	-38	1.04	214.5	1	184.2	0	0	0	0	0	0	0	0	0	0	0	0;
	100089	184.2	43.49	109	-38	1.04	214.5	1	184.2	0	0	0	0	0	0	0	0	0	0	0	0;
	100089	195.7	44.81	94	-73	1.04	221.7	1	195.7	0	0	0	0	0	0	0	0	0	0	0	0;
	100002	0	41.61	120	-100	1.04	217.8	1	186.8	0	0	0	0	0	0	0	0	0	0	0	0;
	100087	0	1	1	1	1.01	8	0	8	0	0	0	0	0	0	0	0	0	0	0	0;
	100087	0.3	0	0.15	-0.15	1	100	1	0.3	0	0	0	0	0	0	0	0	0	0	0	0;
	100087	0.3	0	0.15	-0.15	1	100	1	0.3	0	0	0	0	0	0	0	0	0	0	0	0;
	100087	0.4	0	0.2	-0.2	1	100	1	0.4	0	0	0	0	0	0	0	0	0	0	0	0;
	100087	0.7	0	0.35	-0.35	1	100	1	0.7	0	0	0	0	0	0	0	0	0	0	0	0;
	100087	1	0	0.5	-0.5	1	100	1	1	0	0	0	0	0	0	0	0	0	0	0	0;
	100087	0	1	1	1	1	8	0	8	0	0	0	0	0	0	0	0	0	0	0	0;
	100087	0.3	0	0.15	-0.15	1	100	1	0.3	0	0	0	0	0	0	0	0	0	0	0	0;
	100087	0.3	0	0.15	-0.15	1	100	1	0.3	0	0	0	0	0	0	0	0	0	0	0	0;
	100087	0.4	0	0.2	-0.2	1	100	1	0.4	0	0	0	0	0	0	0	0	0	0	0	0;
	100087	0.4	0	0.2	-0.2	1	100	1	0.4	0	0	0	0	0	0	0	0	0	0	0	0;
	100087	0.7	0	0.35	-0.35	1	100	1	0.7	0	0	0	0	0	0	0	0	0	0	0	0;
	100087	0.9	0	0.45	-0.45	1	100	1	0.9	0	0	0	0	0	0	0	0	0	0	0	0;
	100003	0.5	0	0.25	-0.25	1	100	1	0.5	0	0	0	0	0	0	0	0	0	0	0	0;
	100003	0.5	0	0.25	-0.25	1	100	1	0.5	0	0	0	0	0	0	0	0	0	0	0	0;
	100003	0.5	0	0.25	-0.25	1	100	1	0.5	0	0	0	0	0	0	0	0	0	0	0	0;
	100003	0.5	0	0.25	-0.25	1	100	1	0.5	0	0	0	0	0	0	0	0	0	0	0	0;
	100003	0.6	0	0.3	-0.3	1	100	1	0.6	0	0	0	0	0	0	0	0	0	0	0	0;
	100003	0.6	0	0.3	-0.3	1	100	1	0.6	0	0	0	0	0	0	0	0	0	0	0	0;
	100003	0.8	0	0.4	-0.4	1	100	1	0.8	0	0	0	0	0	0	0	0	0	0	0	0;
	100003	0.8	0	0.4	-0.4	1	100	1	0.8	0	0	0	0	0	0	0	0	0	0	0	0;
	100003	7.7	0	3.85	-3.85	1	100	1	7.7	0	0	0	0	0	0	0	0	0	0	0	0;
	100087	0	0	0	0	1.01	4.5	0	4.3	0	0	0	0	0	0	0	0	0	0	0	0;
	100087	0	-0.9	1	0	1.01	8	0	14.8	0	0	0	0	0	0	0	0	0	0	0	0;
	100087	0	-0.9	0.9	-0.9	1.01	8.5	0	14.8	0	0	0	0	0	0	0	0	0	0	0	0;
	100087	0.6	0	0.3	-0.3	1	100	1	0.6	0.039552872	0	0	0	0	0	0	0	0	0	0	0;
	100087	1.2	0	0.6	-0.6	1	100	1	1.2	0	0	0	0	0	0	0	0	0	0	0	0;
	100087	1.2	0	0.6	-0.6	1	100	1	1.2	0	0	0	0	0	0	0	0	0	0	0	0;
	100087	1.6	0	0.8	-0.8	1	100	1	1.6	0.105474326	0	0	0	0	0	0	0	0	0	0	0;
	100087	1.6	0	0.8	-0.8	1	100	1	1.6	0.105474326	0	0	0	0	0	0	0	0	0	0	0;
	100087	4.5	0	2.25	-2.25	1	100	1	4.5	0	0	0	0	0	0	0	0	0	0	0	0;
	100087	0	0	1	0	1.01	8.5	0	8.1	0	0	0	0	0	0	0	0	0	0	0	0;
	100087	0.1	0	0.05	-0.05	1	100	1	0.1	0	0	0	0	0	0	0	0	0	0	0	0;
	100087	0.3	0	0.15	-0.15	1	100	1	0.3	0	0	0	0	0	0	0	0	0	0	0	0;
	100087	0.4	0	0.2	-0.2	1	100	1	0.4	0	0	0	0	0	0	0	0	0	0	0	0;
	100087	0.4	0	0.2	-0.2	1	100	1	0.4	0	0	0	0	0	0	0	0	0	0	0	0;
	100087	0.4	0	0.2	-0.2	1	100	1	0.4	0	0	0	0	0	0	0	0	0	0	0	0;
	100087	0.8	0	0.4	-0.4	1	100	1	0.8	0	0	0	0	0	0	0	0	0	0	0	0;
	100087	1	0	0.5	-0.5	1	100	1	1	0	0	0	0	0	0	0	0	0	0	0	0;
	100089	0.2	0	0.1	-0.1	1	100	1	0.2	0	0	0	0	0	0	0	0	0	0	0	0;
	100089	0.2	0	0.1	-0.1	1	100	1	0.2	0	0	0	0	0	0	0	0	0	0	0	0;
	100089	0.4	0	0.2	-0.2	1	100	1	0.4	0	0	0	0	0	0	0	0	0	0	0	0;
	100089	0.4	0	0.2	-0.2	1	100	1	0.4	0	0	0	0	0	0	0	0	0	0	0	0;
	100089	0.5	0	0.25	-0.25	1	100	1	0.5	0	0	0	0	0	0	0	0	0	0	0	0;
	100089	0.6	0	0.3	-0.3	1	100	1	0.6	0	0	0	0	0	0	0	0	0	0	0	0;
	100089	0.6	0	0.3	-0.3	1	100	1	0.6	0	0	0	0	0	0	0	0	0	0	0	0;
	100089	0.8	0	0.4	-0.4	1	100	1	0.8	0	0	0	0	0	0	0	0	0	0	0	0;
	100089	0.8	0	0.4	-0.4	1	100	1	0.8	0	0	0	0	0	0	0	0	0	0	0	0;
	100089	0.8	0	0.4	-0.4	1	100	1	0.8	0	0	0	0	0	0	0	0	0	0	0	0;
	100089	12.4	0	0	0	0.96	12.5	1	12.4	1.12727273	0	0	0	0	0	0	0	0	0	0	0;
	100089	12.4	0	0	0	0.96	2	1	12.4	0	0	0	0	0	0	0	0	0	0	0	0;
	100089	0.2	0	0.1	-0.1	1	100	1	0.2	0	0	0	0	0	0	0	0	0	0	0	0;
	100089	0.2	0	0.1	-0.1	1	100	1	0.2	0	0	0	0	0	0	0	0	0	0	0	0;
	100089	0.4	0	0.2	-0.2	1	100	1	0.4	0	0	0	0	0	0	0	0	0	0	0	0;
	100089	0.5	0	0.25	-0.25	1	100	1	0.5	0	0	0	0	0	0	0	0	0	0	0	0;
	100089	0.6	0	0.3	-0.3	1	100	1	0.6	0	0	0	0	0	0	0	0	0	0	0	0;
	100089	3.56	10	10	10	1.01	55	1	51	20	0	0	0	0	0	0	0	0	0	0	0;
	100089	0	4	4	4	1.02	18.75	1	16	4	0	0	0	0	0	0	0	0	0	0	0;
	100087	5.33064965	1.33	19	0	1.01	38.4	1	34.5	0	0	0	0	0	0	0	0	0	0	0	0;
	100087	0	12	19	0	1.03	38.4	1	34.5	0	0	0	0	0	0	0	0	0	0	0	0;
	100003	2.8	0	1.4	-1.4	1	100	1	2.8	0	0	0	0	0	0	0	0	0	0	0	0;
	100003	50.5	15	15	15	1.06	51	1	50.5	0	0	0	0	0	0	0	0	0	0	0	0;
	100003	68.4	0	34.2	-34.2	1	100	1	68.4	21.2879416	0	0	0	0	0	0	0	0	0	0	0;
	100002	0	32	32	32	1.05	86.6	1	72	10	0	0	0	0	0	0	0	0	0	0	0;
	100087	0	0	6.25	-6.25	1	100	0	12.5	3.89034021	0	0	0	0	0	0	0	0	0	0	0;
	100087	0.1	0	0.05	-0.05	1	100	1	0.1	0	0	0	0	0	0	0	0	0	0	0	0;
	100087	0.3	0	0.15	-0.15	1	100	1	0.3	0	0	0	0	0	0	0	0	0	0	0	0;
	100087	0.4	0	0.2	-0.2	1	100	1	0.4	0	0	0	0	0	0	0	0	0	0	0	0;
	100087	0.4	0	0.2	-0.2	1	100	1	0.4	0	0	0	0	0	0	0	0	0	0	0	0;
	100087	0.4	0	0.2	-0.2	1	100	1	0.4	0.026368582	0	0	0	0	0	0	0	0	0	0	0;
	100087	0.6	0	0.3	-0.3	1	100	1	0.6	0.18673633	0	0	0	0	0	0	0	0	0	0	0;
	100087	0.7	0	0.35	-0.35	1	100	1	0.7	0.217859052	0	0	0	0	0	0	0	0	0	0	0;
	100087	0.7	0	0.35	-0.35	1	100	1	0.7	0	0	0	0	0	0	0	0	0	0	0	0;
	100087	0.7	0	0.35	-0.35	1	100	1	0.7	0	0	0	0	0	0	0	0	0	0	0	0;
	100087	0.8	0	0.4	-0.4	1	100	1	0.8	0	0	0	0	0	0	0	0	0	0	0	0;
	100087	0.8	0	0.4	-0.4	1	100	1	0.8	0	0	0	0	0	0	0	0	0	0	0	0;
	100087	1	0	0.5	-0.5	1	100	1	1	0	0	0	0	0	0	0	0	0	0	0	0;
	100087	1	0	0.5	-0.5	1	100	1	1	0	0	0	0	0	0	0	0	0	0	0	0;
	100087	1	0	0.5	-0.5	1	100	1	1	0	0	0	0	0	0	0	0	0	0	0	0;
	100087	1.1	0	0.55	-0.55	1	100	1	1.1	0	0	0	0	0	0	0	0	0	0	0	0;
	100087	1.6	0	0.8	-0.8	1	100	1	1.6	0.105474326	0	0	0	0	0	0	0	0	0	0	0;
	100087	1.6	0	0.8	-0.8	1	100	1	1.6	0.105474326	0	0	0	0	0	0	0	0	0	0	0;
	100087	1.6	0	0.8	-0.8	1	100	1	1.6	0	0	0	0	0	0	0	0	0	0	0	0;
	100087	3	0	1.5	-1.5	1	100	1	3	0	0	0	0	0	0	0	0	0	0	0	0;
	100087	3.6	0	1.8	-1.8	1	100	1	3.6	0	0	0	0	0	0	0	0	0	0	0	0;
	100087	102.6	0	51.3	-51.3	1	100	1	102.6	31.9319125	0	0	0	0	0	0	0	0	0	0	0;
	100002	0	6	6	6	0.99	21.5	0	21	4	0	0	0	0	0	0	0	0	0	0	0;
	100002	27.5	0	13.75	-13.75	1	100	1	27.5	8.55874847	0	0	0	0	0	0	0	0	0	0	0;
	100087	0.5	0	0.25	-0.25	1	100	1	0.5	0	0	0	0	0	0	0	0	0	0	0	0;
	100087	0.5	0	0.25	-0.25	1	100	1	0.5	0	0	0	0	0	0	0	0	0	0	0	0;
	100087	0.7	0	0.35	-0.35	1	100	1	0.7	0	0	0	0	0	0	0	0	0	0	0	0;
	100087	1.1	0	0.55	-0.55	1	100	1	1.1	0	0	0	0	0	0	0	0	0	0	0	0;
	100087	1.1	0	0.55	-0.55	1	100	1	1.1	0	0	0	0	0	0	0	0	0	0	0	0;
	100087	1.1	0	0.55	-0.55	1	100	1	1.1	0	0	0	0	0	0	0	0	0	0	0	0;
	100087	0.5	0	0.25	-0.25	1	100	1	0.5	0	0	0	0	0	0	0	0	0	0	0	0;
	100087	1	0	0.5	-0.5	1	100	1	1	0	0	0	0	0	0	0	0	0	0	0	0;
	100087	1.1	0	0.55	-0.55	1	100	1	1.1	0	0	0	0	0	0	0	0	0	0	0	0;
	100087	1.1	0	0.55	-0.55	1	100	1	1.1	0	0	0	0	0	0	0	0	0	0	0	0;
	100087	1.1	0	0.55	-0.55	1	100	1	1.1	0	0	0	0	0	0	0	0	0	0	0	0;
	100087	10.4	0.4	0.5	0.2	1.02	5.75	1	10.4	0	0	0	0	0	0	0	0	0	0	0	0;
	100087	10.4	0.4	0.5	0.2	1.02	5.75	1	10.4	0	0	0	0	0	0	0	0	0	0	0	0;
	100087	0.5	0	0.25	-0.25	1	100	1	0.5	0	0	0	0	0	0	0	0	0	0	0	0;
	100087	0.6	0	0.3	-0.3	1	100	1	0.6	0	0	0	0	0	0	0	0	0	0	0	0;
	100087	1	0	0.5	-0.5	1	100	1	1	0	0	0	0	0	0	0	0	0	0	0	0;
	100087	1.1	0	0.55	-0.55	1	100	1	1.1	0	0	0	0	0	0	0	0	0	0	0	0;
	100087	1.1	0	0.55	-0.55	1	100	1	1.1	0	0	0	0	0	0	0	0	0	0	0	0;
	100087	0	8.29	20	0	1.01	44	1	39.6	0	0	0	0	0	0	0	0	0	0	0	0;
	100089	0.6	0	0.3	-0.3	1	100	1	0.6	0	0	0	0	0	0	0	0	0	0	0	0;
	100089	1.1	0	0.55	-0.55	1	100	1	1.1	0	0	0	0	0	0	0	0	0	0	0	0;
	100089	1.5	0	0.75	-0.75	1	100	1	1.5	0	0	0	0	0	0	0	0	0	0	0	0;
	100089	1.5	0	0.75	-0.75	1	100	1	1.5	0	0	0	0	0	0	0	0	0	0	0	0;
	100089	1.5	0	0.75	-0.75	1	100	1	1.5	0	0	0	0	0	0	0	0	0	0	0	0;
	100089	4	0	2	-2	1	100	1	4	0	0	0	0	0	0	0	0	0	0	0	0;
	100089	0.6	0	0.3	-0.3	1	100	1	0.6	0	0	0	0	0	0	0	0	0	0	0	0;
	100089	0.7	0	0.35	-0.35	1	100	1	0.7	0	0	0	0	0	0	0	0	0	0	0	0;
	100089	1.5	0	0.75	-0.75	1	100	1	1.5	0	0	0	0	0	0	0	0	0	0	0	0;
	100089	8.5	0	4.25	-4.25	1	100	1	8.5	0	0	0	0	0	0	0	0	0	0	0	0;
	100003	4	0	2	-2	1	100	1	4	0	0	0	0	0	0	0	0	0	0	0	0;
	100003	19	0	0	0	1	17	1	19	7.82352941	0	0	0	0	0	0	0	0	0	0	0;
	100087	14.2	0	7.1	-7.1	1	100	1	14.2	0	0	0	0	0	0	0	0	0	0	0	0;
	100003	0.6	0	0.3	-0.3	1	100	1	0.6	0	0	0	0	0	0	0	0	0	0	0	0;
	100003	1.44	0.7	0.7	0	0.99	1.6	1	1.44	0	0	0	0	0	0	0	0	0	0	0	0;
	100087	1.5	0	0.75	-0.75	1	100	1	1.5	0	0	0	0	0	0	0	0	0	0	0	0;
	100087	1.8	0	0.9	-0.9	1	100	1	1.8	0	0	0	0	0	0	0	0	0	0	0	0;
	100087	7.2	0	3.6	-3.6	1	100	1	7.2	0	0	0	0	0	0	0	0	0	0	0	0;
	100089	13.3	0	0	0	1.05	11	1	13.3	0	0	0	0	0	0	0	0	0	0	0	0;
	100089	17.5	0	8.75	-8.75	1	100	1	17.5	5.44140774	0	0	0	0	0	0	0	0	0	0	0;
	100089	17.5	0	8.75	-8.75	1	100	1	17.5	5.44140774	0	0	0	0	0	0	0	0	0	0	0;
	100003	3.3	0	1.65	-1.65	1	100	1	3.3	0	0	0	0	0	0	0	0	0	0	0	0;
	100003	3.3	0	1.65	-1.65	1	100	1	3.3	0	0	0	0	0	0	0	0	0	0	0	0;
	100003	3.3	0	1.65	-1.65	1	100	1	3.3	0	0	0	0	0	0	0	0	0	0	0	0;
	100003	3.3	0	1.65	-1.65	1	100	1	3.3	0	0	0	0	0	0	0	0	0	0	0	0;
	100087	3.5	0	1.75	-1.75	1	100	1	3.5	0	0	0	0	0	0	0	0	0	0	0	0;
	100087	13	0	6.5	-6.5	1	100	1	13	0	0	0	0	0	0	0	0	0	0	0	0;
	100087	0.4	0	0.2	-0.2	1	100	1	0.4	0	0	0	0	0	0	0	0	0	0	0	0;
	100087	0.5	0	0.25	-0.25	1	100	1	0.5	0	0	0	0	0	0	0	0	0	0	0	0;
	100087	0.5	0	0.25	-0.25	1	100	1	0.5	0	0	0	0	0	0	0	0	0	0	0	0;
	100087	14	0	0	0	1.04	14	1	14	0	0	0	0	0	0	0	0	0	0	0	0;
	100087	3.5	0	1.75	-1.75	1	100	1	3.5	0	0	0	0	0	0	0	0	0	0	0	0;
	100087	9.7	0	4.85	-4.85	1	100	1	9.7	0	0	0	0	0	0	0	0	0	0	0	0;
	100087	9.7	0	4.85	-4.85	1	100	1	9.7	0	0	0	0	0	0	0	0	0	0	0	0;
	100089	9.9	0	4.95	-4.95	1	100	1	9.9	0	0	0	0	0	0	0	0	0	0	0	0;
	100089	9.9	0	4.95	-4.95	1	100	1	9.9	0	0	0	0	0	0	0	0	0	0	0	0;
	100089	1.1	0	0.55	-0.55	1	100	1	1.1	0	0	0	0	0	0	0	0	0	0	0	0;
	100089	22	0	11	-11	1	100	1	22	6.84699877	0	0	0	0	0	0	0	0	0	0	0;
	100089	1.1	0	0.55	-0.55	1	100	1	1.1	0	0	0	0	0	0	0	0	0	0	0	0;
	100089	8	0	4	0	1	8.94	1	8	2.25	0	0	0	0	0	0	0	0	0	0	0;
	100089	2	0	1	-1	1	100	1	2	0	0	0	0	0	0	0	0	0	0	0	0;
	100089	0.7	0	0.35	-0.35	1	100	1	0.7	0	0	0	0	0	0	0	0	0	0	0	0;
	100089	2	0	1	-1	1	100	1	2	0	0	0	0	0	0	0	0	0	0	0	0;
	100003	0.8	0	0.4	-0.4	1	100	1	0.8	0	0	0	0	0	0	0	0	0	0	0	0;
	100003	0.9	0	0.45	-0.45	1	100	1	0.9	0	0	0	0	0	0	0	0	0	0	0	0;
	100003	0.9	0	0.45	-0.45	1	100	1	0.9	0	0	0	0	0	0	0	0	0	0	0	0;
	100003	2.2	0	1.1	-1.1	1	100	1	2.2	0	0	0	0	0	0	0	0	0	0	0	0;
	100003	0.8	0	0.4	-0.4	1	100	1	0.8	0	0	0	0	0	0	0	0	0	0	0	0;
	100003	0.8	0	0.4	-0.4	1	100	1	0.8	0	0	0	0	0	0	0	0	0	0	0	0;
	100003	0.9	0	0.45	-0.45	1	100	1	0.9	0	0	0	0	0	0	0	0	0	0	0	0;
	100003	2.2	0	1.1	-1.1	1	100	1	2.2	0	0	0	0	0	0	0	0	0	0	0	0;
...
];

%% branch data
%	fbus	tbus	r	x	b	rateA	rateB	rateC	ratio	angle	status	angmin	angmax
mpc.branch = [
	100001	100002	0.0024	0.0256	0.4272	998	998	1062	1	0	1	-360	360;
	100001	190230	0.0023	0.0254	0.4232	1021	1021	1068	1	0	1	-360	360;
	100002	100003	0.10297	0.3843361	0	0	0	0	1	0	1	-360	360;
	100002	100004	0	0.00011	0	1429.4	1429.4	1434.1	1	0	0	-360	360;
	100002	100004	0	-0.0205	0	0	1429	1434	1	0	1	-360	360;
	100002	100087	0.59214	1.4515673	0	0	0	0	1	0	1	-360	360;
	100002	100091	0.11611	0.7974743	0	0	0	0	1	0	1	-360	360;
	100002	190237	0.00288	0.04155	0.73504	1773	1773	1929	1	0	1	-360	360;
	100003	100004	0.00251	0.0276	0.4608	0	1429	1434	1	0	1	-360	360;
	100003	100086	0.00118	0.01332	0.2112	0	1429	1434	1	0	1	-360	360;
	100003	100087	0.04847	0.3245966	0	0	0	0	1	0	1	-360	360;
	100003	100089	0.31436	1.035769	0	0	0	0	1	0	1	-360	360;
	100003	100091	0.01351	0.1976817	0	0	0	0	1	0	1	-360	360;
	100086	100087	0.00136	0.01528	0.24503	1255	1429	1434	1	0	1	-360	360;
	100086	100090	0.00257	0.02865	0.46212	1255	1429	1434	1	0	1	-360	360;
	100086	100091	0.00016	0.00178	0.02858	437	437	456	1	0	1	-360	360;
	100087	100089	0.01691	0.1411206	0	0	0	0	1	0	1	-360	360;
	100087	100090	0.00122	0.01356	0.21849	1255	1429	1434	1	0	1	-360	360;
	100087	100091	0.0303	0.2284715	0	0	0	0	1	0	1	-360	360;
	100087	104003	-0.11196	2.9005976	0	0	0	0	1	0	1	-360	360;
	100087	104095	0.08247	3.0100813	0	0	0	0	1	0	1	-360	360;
	100087	104143	0.25472	3.2101703	0	0	0	0	1	0	1	-360	360;
	100088	100089	0.001	0.0115	0.2009	1560	1560	1680	1	0	1	-360	360;
	100089	100090	0.0003	0.0036	0.0627	1255	1434	1434	1	0	1	-360	360;
	100089	100091	0.20943	0.7319946	0	0	0	0	1	0	1	-360	360;
	100089	104095	-0.02543	0.441641	0	0	0	0	1	0	1	-360	360;
	100089	104111	0.0221	2.2227302	0	0	0	0	1	0	1	-360	360;
	100089	104143	0.00311	0.4568076	0	0	0	0	1	0	1	-360	360;
	100090	104059	0.0014	0.0154	0.257	1255	1429	1434	1	0	1	-360	360;
	100090	104063	0.0014	0.0154	0.257	1255	1429	1434	1	0	1	-360	360;
	104003	106008	4e-05	0.00025	0.00048	463	572	618	1	0	1	-360	360;
	104003	104111	-0.12257	2.3741188	0	0	0	0	1	0	1	-360	360;
	104003	106009	0.11699	1.1516928	0	0	0	0	1	0	1	-360	360;
	104003	107324	0.13095	0.8014041	0	0	0	0	1	0	1	-360	360;
	104059	104095	0.00086	0.00942	0.15569	1430	1430	1430	1	0	1	-360	360;
	104063	104143	0.00171	0.0188	0.3108	1371	1371	1371	1	0	1	-360	360;
	104079	104080	5e-05	0.00065	0.01166	1315	1410	1936	1	0	1	-360	360;
	104079	104095	0.0009	0.01273	0.21581	1715	1835	2145	1	0	1	-360	360;
	104079	104119	0.00045	0.00625	0.10875	1753	1917	2585	1	0	1	-360	360;
	104095	104111	-0.00073	0.243374	0	0	0	0	1	0	1	-360	360;
	104095	104143	0.00085	0.00938	0.15511	1373	1373	1373	1	0	1	-360	360;
	104095	104143	-0.0049	0.226362	0	0	0	0	1	0	1	-360	360;
	104095	104175	0.17531	3.4367249	0	0	0	0	1	0	1	-360	360;
	104095	107010	-0.20241	3.5936661	0	0	0	0	1	0	1	-360	360;
	104095	113955	0.37519	3.7270503	0	0	0	0	1	0	1	-360	360;
	104111	104113	0.0019	0.01331	0.0227	376	376	376	1	0	1	-360	360;
	104111	104143	-0.00423	0.2349394	0	0	0	0	1	0	1	-360	360;
	104111	104175	0.09574	2.3329668	0	0	0	0	1	0	1	-360	360;
	104111	107010	-0.1245	2.009558	0	0	0	0	1	0	1	-360	360;
	104111	113955	0.31304	3.0958703	0	0	0	0	1	0	1	-360	360;
	104119	104127	0.00015	0.00207	0.04293	1752	1916	2680	1	0	1	-360	360;
	104127	104135	0.00015	0.00361	0.07238	2443	2664	3894	1	0	1	-360	360;
	104127	104143	0.0006	0.01424	0.26692	1494	1494	1494	1	0	1	-360	360;
	104135	114063	0.0002	0.00441	0.08771	2696	2696	3024	1	0	1	-360	360;
	104143	104151	0.0005	0.00543	0.08971	1371	1371	1371	1	0	1	-360	360;
	104143	104167	0.00072	0.00798	0.13206	1431	1431	1431	1	0	1	-360	360;
	104143	104175	0.06349	2.2651057	0	0	0	0	1	0	1	-360	360;
	104143	107040	0.04126	3.7486165	0	0	0	0	1	0	1	-360	360;
	104143	113950	0.19756	2.9198697	0	0	0	0	1	0	1	-360	360;
	104143	113952	0.04395	0.5942125	0	0	0	0	1	0	1	-360	360;
	104143	113955	0.02776	0.3844362	0	0	0	0	1	0	1	-360	360;
	104143	114476	0.32957	1.9243161	0	0	0	0	1	0	1	-360	360;
	104151	104159	0.00034	0.00378	0.06248	1430	1430	1430	1	0	1	-360	360;
	104159	113950	0.00055	0.00635	0.10193	1206	1447	1765	1	0	1	-360	360;
	104167	104175	0.00146	0.01604	0.26516	1371	1371	1371	1	0	1	-360	360;
	104175	104183	0.0006	0.00665	0.1086	1254	1341	1341	1	0	1	-360	360;
	104175	107000	0.03992	0.9000497	0	0	0	0	1	0	1	-360	360;
	104175	107010	0.05147	1.1594476	0	0	0	0	1	0	1	-360	360;
	104175	107040	0.02084	0.6959855	0	0	0	0	1	0	1	-360	360;
	104175	107100	-0.00267	3.0726914	0	0	0	0	1	0	1	-360	360;
	104175	113265	0.0006	0.8828096	0	0	0	0	1	0	1	-360	360;
	104175	113266	-0.01265	0.5518732	0	0	0	0	1	0	1	-360	360;
	104175	113950	-0.02031	1.4391382	0	0	0	0	1	0	1	-360	360;
	104183	107040	0.0006	0.00665	0.1086	1254	1341	1341	1	0	1	-360	360;
	104191	104195	0.00025	0.00282	0.04642	1254	1341	1341	1	0	1	-360	360;
	104191	107040	0.00025	0.00282	0.04642	1254	1341	1341	1	0	1	-360	360;
	104195	116009	0.0004	0.00465	0.0798	1345	1345	1936	1	0	1	-360	360;
	106002	106003	4e-05	0.00057	0.0012	718	718	1032	1	0	1	-360	360;
	106002	106003	4e-05	0.00057	0.0012	718	718	1032	1	0	1	-360	360;
	106003	106004	9e-05	0.0005	0.00087	44.1	44.1	44.1	1	0	1	-360	360;
	106003	106005	9e-05	0.00048	0.00085	44.1	44.1	44.1	1	0	1	-360	360;
	106003	106006	9e-05	0.00046	0.00082	44.1	44.1	44.1	1	0	1	-360	360;
	106003	106007	9e-05	0.00045	0.00079	44.1	44.1	44.1	1	0	1	-360	360;
	106003	106008	0.00195	0.00902	0.01654	168	193	251	1	0	1	-360	360;
	106003	106009	0.00217	0.01009	0.01843	168	193	251	1	0	1	-360	360;
	106003	106010	1.07298	3.7145584	0	0	0	0	1	0	1	-360	360;
	106003	104113	0.02055	0.14015	0.25196	359	359	406	1	0	1	-360	360;
	106003	106012	0.02352	0.1604	0.28836	335	359	409	1	0	1	-360	360;
	106003	107100	0.45528	3.4400859	0	0	0	0	1	0	1	-360	360;
	106008	106010	0.00023	0.00107	0.0019	168	193	251	1	0	1	-360	360;
	104113	106013	0.00297	0.02025	0.0364	382	382	404	1	0	1	-360	360;
	106012	113955	0.0049	0.03344	0.06012	382	382	404	1	0	1	-360	360;
	106013	113955	0.0049	0.03344	0.06012	464	568	618	1	0	1	-360	360;
	106014	106013	0.00041	0.00387	0.00848	578	578	578	1	0	1	-360	360;
	106015	106012	0.00041	0.00387	0.00848	578	578	578	1	0	1	-360	360;
	107000	107040	0.0005	0.0059	0.0263	862	862	862	1	0	1	-360	360;
	107000	107040	0.0005	0.0059	0.0263	862	862	862	1	0	1	-360	360;
	107000	107040	0.00083	0.0637983	0	0	0	0	1	0	1	-360	360;
	107000	107050	0.1821	2.1083529	0	0	0	0	1	0	1	-360	360;
	107010	107020	0.00128	0.0137	0.2356	1276	1491	1719	1	0	1	-360	360;
	107010	107020	0.02489	0.2644173	0	0	0	0	1	0	1	-360	360;
	107010	107030	0.36307	2.3658557	0	0	0	0	1	0	1	-360	360;
	107010	107040	0.0025	0.0259	0.4263	862	862	862	1	0	1	-360	360;
	107010	107050	0.00175	0.01817	0.29902	862	862	862	1	0	1	-360	360;
	107010	107100	-0.00224	0.8157756	0	0	0	0	1	0	1	-360	360;
	107010	113266	0.48999	3.5373294	0	0	0	0	1	0	1	-360	360;
	107020	107030	0.00168	0.01786	0.30668	1276	1491	1719	1	0	1	-360	360;
	107020	107030	0.02363	0.2824216	0	0	0	0	1	0	1	-360	360;
	107020	107100	0.38581	2.9087265	0	0	0	0	1	0	1	-360	360;
	107020	137452	-0.07519	3.2554939	0	0	0	0	1	0	1	-360	360;
	107020	137453	-0.06616	3.08428	0	0	0	0	1	0	1	-360	360;
	107020	137454	-0.24131	1.6130904	0	0	0	0	1	0	1	-360	360;
	107020	137730	-0.06609	0.6832366	0	0	0	0	1	0	1	-360	360;
	107030	107100	-0.07893	0.830885	0	0	0	0	1	0	1	-360	360;
	107030	107324	-0.11561	0.565131	0	0	0	0	1	0	1	-360	360;
	107030	147843	0.0605	1.4551476	0	0	0	0	1	0	1	-360	360;
	107030	147844	0.04848	1.3703086	0	0	0	0	1	0	1	-360	360;
	107040	107050	0.00081	0.00817	0.13455	862	862	862	1	0	1	-360	360;
	107040	107050	0.11727	1.6313208	0	0	0	0	1	0	1	-360	360;
	107100	107324	-0.10518	0.884478	0	0	0	0	1	0	1	-360	360;
	107100	106003	0.0072	0.0487	0.0923	319	383	405	1	0	1	-360	360;
	107100	147843	0.24168	2.4043078	0	0	0	0	1	0	1	-360	360;
	107100	147844	0.21352	2.2649562	0	0	0	0	1	0	1	-360	360;
	107324	147843	0.10412	0.7772523	0	0	0	0	1	0	1	-360	360;
	107324	147844	0.0935	0.7323549	0	0	0	0	1	0	1	-360	360;
	107326	180784	0.15033	1.3886782	0	0	0	0	1	0	1	-360	360;
	107326	182263	0.0133	0.1988025	0	0	0	0	1	0	1	-360	360;
	110756	110757	0.00034	0.00388	0.0754	1147	1319	1549	1	0	1	-360	360;
	110756	110757	-0.08073	0.5540318	0	0	0	0	1	0	1	-360	360;
	110756	110758	0.00025	0.00133	1.204	420	751	1058	1	0	1	-360	360;
	110756	110758	0.00025	0.00133	1.204	420	751	1058	1	0	1	-360	360;
	110756	110758	0.09604	2.6414673	0	0	0	0	1	0	1	-360	360;
	110756	110766	0.13913	1.6177317	0	0	0	0	1	0	1	-360	360;
	110756	110789	-0.37326	2.3746235	0	0	0	0	1	0	1	-360	360;
	110756	110790	0.29851	3.5768621	0	0	0	0	1	0	1	-360	360;
	110756	110862	0.29027	3.5283744	0	0	0	0	1	0	1	-360	360;
	110756	113950	-0.0917	1.678501	0	0	0	0	1	0	1	-360	360;
	110756	113952	-0.05583	1.7471051	0	0	0	0	1	0	1	-360	360;
	110756	113955	-0.00929	0.213649	0	0	0	0	1	0	1	-360	360;
	110756	114476	-0.01436	0.2907177	0	0	0	0	1	0	1	-360	360;
	110756	118094	0.00029	0.00294	0.0561	1530	1975	1975	1	0	1	-360	360;
	110757	110758	0.05283	0.5812482	0	0	0	0	1	0	1	-360	360;
	110757	110759	0.13964	1.0438215	0	0	0	0	1	0	1	-360	360;
	110757	110766	0.05061	0.3558015	0	0	0	0	1	0	1	-360	360;
	110757	110788	-0.01728	1.8217272	0	0	0	0	1	0	1	-360	360;
	110757	110789	-0.05559	0.5217722	0	0	0	0	1	0	1	-360	360;
	110757	110790	0.10989	0.7867991	0	0	0	0	1	0	1	-360	360;
	110757	110795	-0.20432	2.140466	0	0	0	0	1	0	1	-360	360;
	110757	110862	0.10976	0.7796286	0	0	0	0	1	0	1	-360	360;
	110757	113955	-0.04953	0.6256178	0	0	0	0	1	0	1	-360	360;
	110757	114476	-0.07104	0.8439378	0	0	0	0	1	0	1	-360	360;
	110758	110759	0.0002	0.00114	0.9137	522	773	1037	1	0	1	-360	360;
	110758	110759	0.00021	0.00099	1.034	570	830	1129	1	0	1	-360	360;
	110758	110759	-0.02515	0.45686	0	0	0	0	1	0	1	-360	360;
	110758	110766	-0.00712	0.1567057	0	0	0	0	1	0	1	-360	360;
	110758	110780	-0.48777	2.5871324	0	0	0	0	1	0	1	-360	360;
	110758	110788	-0.1515	0.8372588	0	0	0	0	1	0	1	-360	360;
	110758	110789	-0.08941	0.5627612	0	0	0	0	1	0	1	-360	360;
	110758	110790	-0.01661	0.3463654	0	0	0	0	1	0	1	-360	360;
	110758	110795	-0.28854	1.5741014	0	0	0	0	1	0	1	-360	360;
	110758	110862	-0.01625	0.3424903	0	0	0	0	1	0	1	-360	360;
	110758	113955	0.28772	2.911634	0	0	0	0	1	0	1	-360	360;
	110758	114476	0.24289	3.6149242	0	0	0	0	1	0	1	-360	360;
	110759	110766	0.00018	0.00084	0.875	550	844	977	1	0	1	-360	360;
	110759	110766	0.00018	0.00084	0.875	550	844	977	1	0	1	-360	360;
	110759	110766	-0.00656	0.2506602	0	0	0	0	1	0	1	-360	360;
	110759	110788	-0.21022	1.4856868	0	0	0	0	1	0	1	-360	360;
	110759	110789	-0.11787	1.0214287	0	0	0	0	1	0	1	-360	360;
	110759	110790	-0.016	0.5540974	0	0	0	0	1	0	1	-360	360;
	110759	110795	-0.40016	2.8229489	0	0	0	0	1	0	1	-360	360;
	110759	110862	-0.02559	0.4489569	0	0	0	0	1	0	1	-360	360;
	110759	114398	0.00026	0.00132	1.2	388	890	1001	1	0	1	-360	360;
	110759	114398	0.00026	0.00132	1.2	388	890	1001	1	0	1	-360	360;
	110766	110780	-0.22404	1.4906031	0	0	0	0	1	0	1	-360	360;
	110766	110788	-0.06891	0.4788432	0	0	0	0	1	0	1	-360	360;
	110766	110789	-0.03752	0.348104	0	0	0	0	1	0	1	-360	360;
	110766	110790	-0.00895	0.1463936	0	0	0	0	1	0	1	-360	360;
	110766	110795	-0.13006	0.9323951	0	0	0	0	1	0	1	-360	360;
	110766	110862	-0.00714	0.1631574	0	0	0	0	1	0	1	-360	360;
	110766	113955	0.26376	1.7756209	0	0	0	0	1	0	1	-360	360;
	110766	114476	0.24386	2.1858673	0	0	0	0	1	0	1	-360	360;
	110770	110780	0.00035	0.00604	0.0684	1147	1410	1410	1	0	1	-360	360;
	110770	110780	0.00048	0.00451	0.0875	1530	1972	1972	1	0	1	-360	360;
	110770	118091	9e-05	0.00092	0.0156	1300	1440	1440	1	0	1	-360	360;
	110770	110773	0.00024	0.00279	0.04713	1434	1649	1936	1	0	1	-360	360;
	110770	118096	0.00029	0.00433	0.08038	1255	1410	1853	1	0	1	-360	360;
	110770	118098	7e-05	0.0009	0.0157	1705	2080	2210	1	0	1	-360	360;
	110773	110774	2e-05	0.00021	0.004	1000	1000	1000	1	0	1	-360	360;
	110773	110785	0.0001	0.00118	0.02228	1400	1400	1400	1	0	1	-360	360;
	110780	110781	0.01405	0.383908	0	0	0	0	1	0	1	-360	360;
	110780	110786	0.00027	0.00422	0.0825	1315	1410	1900	1	0	1	-360	360;
	110780	110788	-0.06512	0.4442601	0	0	0	0	1	0	1	-360	360;
	110780	110789	-0.41029	2.0605597	0	0	0	0	1	0	1	-360	360;
	110780	110790	-0.50372	3.2949596	0	0	0	0	1	0	1	-360	360;
	110780	110795	-0.04824	0.4856457	0	0	0	0	1	0	1	-360	360;
	110780	110862	-0.4927	3.3485048	0	0	0	0	1	0	1	-360	360;
	110780	111133	0.06119	2.7307835	0	0	0	0	1	0	1	-360	360;
	110780	113263	-0.16083	2.5587351	0	0	0	0	1	0	1	-360	360;
	110780	113265	-0.17954	1.3751646	0	0	0	0	1	0	1	-360	360;
	110780	114734	-0.04147	1.3690959	0	0	0	0	1	0	1	-360	360;
...
];

%%-----  OPF Data  -----%%
%% generator cost data
%	1	startup	shutdown	n	x1	y1	...	xn	yn
%	2	startup	shutdown	n	c(n-1)	...	c0
mpc.gencost = [
	2	0	0	2	2	0;
	2	0	0	2	2	0;
	2	0	0	2	2	0;
	2	0	0	2	2	0;
	2	0	0	2	2	0;
	2	0	0	2	2	0;
	2	0	0	2	2	0;
	2	0	0	2	2	0;
	2	0	0	2	2	0;
	2	0	0	2	2	0;
	2	0	0	2	2	0;
	2	0	0	2	2	0;
	2	0	0	2	2	0;
	2	0	0	2	2	0;
	2	0	0	2	2	0;
	2	0	0	2	2	0;
	2	0	0	2	2	0;
	2	0	0	2	2	0;
	2	0	0	2	2	0;
	2	0	0	2	2	0;
	2	0	0	2	2	0;
	2	0	0	2	2	0;
	2	0	0	2	2	0;
	2	0	0	2	2	0;
	2	0	0	2	2	0;
	2	0	0	2	141.834154	0;
	2	0	0	2	141.545398	0;
	2	0	0	2	120.436968	0;
	2	0	0	2	2	0;
	2	0	0	2	117.547414	0;
	2	0	0	2	41.227449	0;
	2	0	0	2	2	0;
	2	0	0	2	41.3884844	0;
	2	0	0	2	56.9428026	0;
	2	0	0	2	58.4877859	0;
	2	0	0	2	58.1487353	0;
	2	0	0	2	38.1408005	0;
	2	0	0	2	41.297859	0;
	2	0	0	2	50.3074796	0;
	2	0	0	2	50.3074796	0;
	2	0	0	2	38.541248	0;
	2	0	0	2	51.6511045	0;
	2	0	0	2	2	0;
	2	0	0	2	2	0;
	2	0	0	2	2	0;
	2	0	0	2	2	0;
	2	0	0	2	2	0;
	2	0	0	2	2	0;
	2	0	0	2	2	0;
	2	0	0	2	2	0;
	2	0	0	2	2	0;
	2	0	0	2	2	0;
	2	0	0	2	2	0;
	2	0	0	2	2	0;
	2	0	0	2	2	0;
	2	0	0	2	2	0;
	2	0	0	2	2	0;
	2	0	0	2	2	0;
	2	0	0	2	2	0;
	2	0	0	2	2	0;
	2	0	0	2	2	0;
	2	0	0	2	2	0;
	2	0	0	2	2	0;
	2	0	0	2	2	0;
	2	0	0	2	2	0;
	2	0	0	2	2	0;
	2	0	0	2	2	0;
	2	0	0	2	2	0;
	2	0	0	2	2	0;
	2	0	0	2	2	0;
	2	0	0	2	2	0;
	2	0	0	2	2	0;
	2	0	0	2	2	0;
	2	0	0	2	2	0;
	2	0	0	2	2	0;
	2	0	0	2	2	0;
	2	0	0	2	2	0;
	2	0	0	2	2	0;
	2	0	0	2	2	0;
	2	0	0	2	2	0;
	2	0	0	2	2	0;
	2	0	0	2	2	0;
	2	0	0	2	2	0;
	2	0	0	2	2	0;
	2	0	0	2	2	0;
	2	0	0	2	2	0;
	2	0	0	2	2	0;
	2	0	0	2	2	0;
	2	0	0	2	2	0;
	2	0	0	2	2	0;
	2	0	0	2	2	0;
	2	0	0	2	2	0;
	2	0	0	2	2	0;
	2	0	0	2	2	0;
	2	0	0	2	2	0;
	2	0	0	2	2	0;
	2	0	0	2	2	0;
	2	0	0	2	2	0;
	2	0	0	2	76.9540859	0;
	2	0	0	2	77.7870432	0;
	2	0	0	2	63.601209	0;
	2	0	0	2	63.601209	0;
	2	0	0	2	2	0;
	2	0	0	2	19.297437	0;
	2	0	0	2	2	0;
	2	0	0	2	51.6511045	0;
	2	0	0	2	2	0;
	2	0	0	2	2	0;
	2	0	0	2	2	0;
	2	0	0	2	2	0;
	2	0	0	2	2	0;
	2	0	0	2	2	0;
	2	0	0	2	2	0;
	2	0	0	2	2	0;
	2	0	0	2	2	0;
	2	0	0	2	2	0;
	2	0	0	2	2	0;
	2	0	0	2	2	0;
	2	0	0	2	2	0;
	2	0	0	2	2	0;
	2	0	0	2	2	0;
	2	0	0	2	2	0;
	2	0	0	2	2	0;
	2	0	0	2	2	0;
	2	0	0	2	2	0;
	2	0	0	2	2	0;
	2	0	0	2	2	0;
	2	0	0	2	28.2706541	0;
	2	0	0	2	51.6511045	0;
	2	0	0	2	2	0;
	2	0	0	2	2	0;
	2	0	0	2	2	0;
	2	0	0	2	2	0;
	2	0	0	2	2	0;
	2	0	0	2	2	0;
	2	0	0	2	2	0;
	2	0	0	2	2	0;
	2	0	0	2	2	0;
	2	0	0	2	2	0;
	2	0	0	2	2	0;
	2	0	0	2	2	0;
	2	0	0	2	2	0;
	2	0	0	2	2	0;
	2	0	0	2	2	0;
	2	0	0	2	2	0;
	2	0	0	2	2	0;
	2	0	0	2	2	0;
	2	0	0	2	2	0;
	2	0	0	2	63.601209	0;
	2	0	0	2	2	0;
	2	0	0	2	2	0;
	2	0	0	2	2	0;
	2	0	0	2	2	0;
	2	0	0	2	2	0;
	2	0	0	2	2	0;
	2	0	0	2	2	0;
	2	0	0	2	2	0;
	2	0	0	2	2	0;
	2	0	0	2	2	0;
	2	0	0	2	2	0;
	2	0	0	2	42.0539221	0;
	2	0	0	2	2	0;
	2	0	0	2	2	0;
	2	0	0	2	2	0;
	2	0	0	2	2	0;
	2	0	0	2	2	0;
	2	0	0	2	2	0;
	2	0	0	2	2	0;
	2	0	0	2	2	0;
	2	0	0	2	2	0;
	2	0	0	2	2	0;
	2	0	0	2	2	0;
	2	0	0	2	2	0;
	2	0	0	2	2	0;
	2	0	0	2	2	0;
	2	0	0	2	2	0;
	2	0	0	2	2	0;
	2	0	0	2	2	0;
	2	0	0	2	2	0;
	2	0	0	2	2	0;
	2	0	0	2	2	0;
	2	0	0	2	2	0;
	2	0	0	2	2	0;
	2	0	0	2	2	0;
	2	0	0	2	2	0;
	2	0	0	2	2	0;
	2	0	0	2	2	0;
	2	0	0	2	2	0;
	2	0	0	2	2	0;
	2	0	0	2	2	0;
	2	0	0	2	2	0;
	2	0	0	2	2	0;
	2	0	0	2	2	0;
	2	0	0	2	2	0;
	2	0	0	2	2	0;
	2	0	0	2	2	0;
	2	0	0	2	2	0;
	2	0	0	2	2	0;
	2	0	0	2	2	0;
	2	0	0	2	2	0;
...
];

%%-----  DC Line Data  -----%%
%	fbus	tbus	status	Pf	Pt	Qf	Qt	Vf	Vt	Pmin	Pmax	QminF	QmaxF	QminT	QmaxT	loss0	loss1
mpc.dcline = [
	107326	107324	1	198.7	198.7	0	0	1	1	0	228.505	0	0	0	0	0	0;
	180326	180526	1	634.38	634.38	0	0	1	1	0	729.537	0	0	0	0	0	0;
	180326	180526	1	634.38	634.38	0	0	1	1	0	729.537	0	0	0	0	0	0;
	180419	181319	1	360	360	0	0	1	1	0	414	0	0	0	0	0	0;
	180519	181419	1	360	360	0	0	1	1	0	414	0	0	0	0	0	0;
	180526	180326	0	0	0	0	0	1	1	0	0	0	0	0	0	0	0;
	180526	180326	0	0	0	0	0	1	1	0	0	0	0	0	0	0	0;
	180575	180675	1	393.75	393.75	0	0	1	1	0	452.8125	0	0	0	0	0	0;
	180675	180575	0	0	0	0	0	1	1	0	0	0	0	0	0	0	0;
	181020	114072	1	750	750	0	0	1	1	0	862.5	0	0	0	0	0	0;
	181020	114071	1	750	750	0	0	1	1	0	862.5	0	0	0	0	0	0;
	181020	182007	1	42.78	42.78	0	0	1	1	0	49.197	0	0	0	0	0	0;
	181020	182007	1	42.78	42.78	0	0	1	1	0	49.197	0	0	0	0	0	0;
	181319	180419	0	0	0	0	0	1	1	0	0	0	0	0	0	0	0;
	181419	180519	0	0	0	0	0	1	1	0	0	0	0	0	0	0	0;
	190490	190494	1	150	150	0	0	1	1	0	172.5	0	0	0	0	0	0;
	190493	190497	0	0	0	0	0	1	1	0	0	0	0	0	0	0	0;
	190494	190490	0	0	0	0	0	1	1	0	0	0	0	0	0	0	0;
	190497	190493	1	150	150	0	0	1	1	0	172.5	0	0	0	0	0	0;
	206305	128842	1	672	672	0	0	1	1	0	772.8	0	0	0	0	0	0;
	615600	615353	1	557	557	0	0	1	1	0	640.55	0	0	0	0	0	0;
	615600	615353	1	557	557	0	0	1	1	0	640.55	0	0	0	0	0	0;
	657756	608615	1	237.5	237.5	0	0	1	1	0	273.125	0	0	0	0	0	0;
	657756	608615	1	237.5	237.5	0	0	1	1	0	273.125	0	0	0	0	0	0;
];

mpc.genfuel = {
	'hydro';
	'hydro';
	'hydro';
	'unknown';
	'hydro';
	'hydro';
	'hydro';
	'wind';
	'wind';
	'hydro';
	'hydro';
	'hydro';
	'hydro';
	'hydro';
	'hydro';
	'hydro';
	'hydro';
	'hydro';
	'unknown';
	'hydro';
	'hydro';
	'hydro';
	'hydro';
	'hydro';
	'hydro';
	'oil';
	'oil';
	'oil';
	'hydro';
	'oil';
	'biomass';
	'wind';
	'biomass';
	'ng';
	'ng';
	'ng';
	'ng';
	'ng';
	'ng';
	'ng';
	'ng';
	'ng';
	'hydro';
	'hydro';
	'hydro';
	'hydro';
	'hydro';
	'hydro';
	'hydro';
	'hydro';
	'hydro';
	'hydro';
	'hydro';
	'hydro';
	'hydro';
	'hydro';
	'hydro';
	'hydro';
	'hydro';
	'hydro';
	'hydro';
	'hydro';
	'hydro';
	'hydro';
	'hydro';
	'hydro';
	'hydro';
	'unknown';
	'hydro';
	'hydro';
	'biomass';
	'biomass';
	'wind';
	'hydro';
	'hydro';
	'hydro';
	'hydro';
	'hydro';
	'hydro';
	'hydro';
	'hydro';
	'hydro';
	'hydro';
	'hydro';
	'hydro';
	'hydro';
	'hydro';
	'hydro';
	'hydro';
	'hydro';
	'hydro';
	'hydro';
	'hydro';
	'hydro';
	'hydro';
	'hydro';
	'hydro';
	'hydro';
	'biomass';
	'biomass';
	'biomass';
	'biomass';
	'hydro';
	'biomass';
	'biomass';
	'ng';
	'unknown';
	'hydro';
	'hydro';
	'hydro';
	'hydro';
	'unknown';
	'biomass';
	'biomass';
	'hydro';
	'hydro';
	'hydro';
	'hydro';
	'hydro';
	'hydro';
	'hydro';
	'hydro';
	'biomass';
	'biomass';
	'hydro';
	'hydro';
	'hydro';
	'coal';
	'ng';
	'biomass';
	'hydro';
	'hydro';
	'hydro';
	'hydro';
	'hydro';
	'hydro';
	'hydro';
	'hydro';
	'hydro';
	'hydro';
	'hydro';
	'hydro';
	'hydro';
	'hydro';
	'hydro';
	'hydro';
	'hydro';
	'hydro';
	'biomass';
	'hydro';
	'hydro';
	'hydro';
	'hydro';
	'hydro';
	'hydro';
	'hydro';
	'hydro';
	'hydro';
	'hydro';
	'hydro';
	'biomass';
	'hydro';
	'hydro';
	'hydro';
	'hydro';
	'hydro';
	'hydro';
	'refuse';
	'unknown';
	'unknown';
	'hydro';
	'hydro';
	'hydro';
	'hydro';
	'hydro';
	'hydro';
	'hydro';
	'hydro';
	'hydro';
	'hydro';
	'hydro';
	'hydro';
	'hydro';
	'hydro';
	'hydro';
	'hydro';
	'refuse';
	'hydro';
	'hydro';
	'hydro';
	'hydro';
	'hydro';
	'hydro';
	'hydro';
	'hydro';
	'hydro';
	'hydro';
	'hydro';
	'hydro';
	'hydro';
	'hydro';
	'hydro';
	'hydro';
	'hydro';
	'hydro';
	'hydro';
	'hydro';
	'hydro';
	'hydro';
	'hydro';
	'hydro';
	'hydro';
	'hydro';
	'hydro';
	'wind';
	'refuse';
	'hydro';
	'hydro';
	'hydro';
	'hydro';
	'hydro';
	'oil';
	'hydro';
	'hydro';
	'hydro';
	'hydro';
	'hydro';
	'hydro';
	'hydro';
	'hydro';
	'hydro';
	'hydro';
	'hydro';
	'wind';
	'hydro';
	'hydro';
	'ng';
	'ng';
	'ng';
	'refuse';
	'hydro';
	'biomass';
	'hydro';
	'hydro';
	'hydro';
	'hydro';
	'hydro';
	'hydro';
	'unknown';
	'unknown';
	'unknown';
	'biomass';
	'hydro';
	'hydro';
	'hydro';
	'hydro';
	'hydro';
	'hydro';
	'biomass';
	'biomass';
	'biomass';
	'biomass';
	'hydro';
	'hydro';
	'hydro';
	'hydro';
	'hydro';
	'hydro';
	'hydro';
	'hydro';
	'hydro';
	'unknown';
	'biomass';
	'hydro';
	'hydro';
	'hydro';
	'hydro';
	'hydro';
	'hydro';
	'hydro';
	'hydro';
	'ng';
	'hydro';
	'hydro';
	'hydro';
	'hydro';
	'hydro';
	'hydro';
	'hydro';
	'hydro';
	'hydro';
	'hydro';
	'hydro';
	'wind';
	'hydro';
	'hydro';
	'hydro';
	'hydro';
	'unknown';
	'unknown';
	'unknown';
	'unknown';
	'wind';
	'hydro';
	'hydro';
	'hydro';
	'hydro';
	'hydro';
	'hydro';
	'hydro';
	'biomass';
	'biomass';
	'hydro';
	'biomass';
	'hydro';
	'hydro';
	'hydro';
	'hydro';
	'hydro';
	'unknown';
	'hydro';
	'hydro';
	'hydro';
	'hydro';
	'hydro';
	'unknown';
	'unknown';
	'hydro';
	'hydro';
	'hydro';
	'hydro';
	'unknown';
	'hydro';
	'hydro';
	'hydro';
	'hydro';
	'hydro';
	'hydro';
	'hydro';
	'hydro';
	'unknown';
	'hydro';
	'hydro';
	'hydro';
	'hydro';
	'hydro';
	'hydro';
	'hydro';
	'hydro';
	'hydro';
	'hydro';
	'hydro';
	'hydro';
	'hydro';
	'hydro';
	'hydro';
	'hydro';
	'hydro';
	'hydro';
	'hydro';
	'unknown';
	'biomass';
	'biomass';
	'oil';
	'biomass';
	'biomass';
	'unknown';
	'unknown';
	'hydro';
	'hydro';
	'hydro';
	'unknown';
	'unknown';
	'hydro';
	'hydro';
	'hydro';
	'hydro';
	'unknown';
	'unknown';
	'hydro';
	'hydro';
	'hydro';
	'hydro';
	'hydro';
	'hydro';
	'hydro';
	'hydro';
	'hydro';
	'hydro';
	'hydro';
	'hydro';
	'hydro';
	'hydro';
	'hydro';
	'biomass';
	'wind';
	'unknown';
	'unknown';
	'unknown';
	'hydro';
	'hydro';
	'hydro';
	'hydro';
	'hydro';
	'hydro';
	'refuse';
	'hydro';
	'hydro';
	'hydro';
	'hydro';
	'hydro';
	'coal';
	'coal';
	'oil';
	'oil';
	'biomass';
	'biomass';
	'biomass';
	'biomass';
	'biomass';
	'biomass';
	'coal';
	'biomass';
	'coal';
	'oil';
	'hydro';
	'hydro';
	'hydro';
	'ng';
	'ng';
	'ng';
	'ng';
	'unknown';
	'unknown';
	'unknown';
	'unknown';
	'unknown';
	'unknown';
	'wind';
	'ng';
	'biomass';
	'biomass';
	'solar';
	'nuclear';
	'ng';
	'hydro';
	'hydro';
	'hydro';
	'hydro';
	'hydro';
	'hydro';
	'hydro';
	'hydro';
	'hydro';
	'biomass';
	'biomass';
	'hydro';
	'hydro';
	'hydro';
	'hydro';
	'hydro';
	'hydro';
	'hydro';
	'hydro';
	'hydro';
	'hydro';
	'hydro';
	'hydro';
	'hydro';
	'hydro';
	'hydro';
	'hydro';
	'ng';
	'ng';
	'hydro';
	'hydro';
	'hydro';
	'hydro';
	'hydro';
	'hydro';
	'hydro';
	'refuse';
	'hydro';
	'hydro';
	'hydro';
	'unknown';
	'hydro';
	'hydro';
	'hydro';
	'unknown';
	'hydro';
	'hydro';
	'hydro';
	'hydro';
	'hydro';
	'hydro';
	'hydro';
	'hydro';
	'hydro';
	'hydro';
	'hydro';
	'hydro';
	'hydro';
	'hydro';
	'hydro';
	'hydro';
	'hydro';
	'hydro';
	'hydro';
	'hydro';
	'hydro';
	'hydro';
	'hydro';
	'hydro';
	'hydro';
	'oil';
	'unknown';
	'hydro';
	'hydro';
	'hydro';
	'biomass';
	'hydro';
	'unknown';
	'hydro';
	'hydro';
	'hydro';
	'oil';
	'oil';
	'unknown';
	'unknown';
	'wind';
	'hydro';
	'hydro';
	'hydro';
	'unknown';
	'hydro';
	'solar';
	'hydro';
	'hydro';
	'hydro';
	'hydro';
	'hydro';
	'hydro';
	'hydro';
	'hydro';
	'hydro';
	'hydro';
	'hydro';
	'hydro';
	'hydro';
	'hydro';
	'hydro';
	'hydro';
	'oil';
	'oil';
	'unknown';
	'hydro';
	'unknown';
	'hydro';
	'hydro';
	'hydro';
	'hydro';
	'wind';
	'storage';
	'nuclear';
	'biomass';
	'biomass';
	'hydro';
	'hydro';
	'unknown';
	'unknown';
	'hydro';
	'hydro';
	'biomass';
	'hydro';
	'hydro';
	'biomass';
	'hydro';
	'hydro';
	'biomass';
	'hydro';
	'hydro';
	'hydro';
	'hydro';
	'hydro';
	'hydro';
	'hydro';
	'hydro';
	'hydro';
	'hydro';
	'hydro';
	'hydro';
	'hydro';
	'hydro';
	'hydro';
	'hydro';
	'hydro';
	'hydro';
	'hydro';
	'hydro';
	'hydro';
	'unknown';
	'hydro';
	'hydro';
	'hydro';
	'unknown';
	'unknown';
	'oil';
	'oil';
	'oil';
	'ng';
	'ng';
	'ng';
	'ng';
	'oil';
	'oil';
	'oil';
	'unknown';
	'unknown';
	'unknown';
	'unknown';
	'unknown';
	'ng';
	'oil';
	'ng';
	'ng';
	'ng';
	'ng';
	'ng';
	'ng';
	'oil';
	'ng';
	'ng';
	'ng';
	'ng';
	'ng';
	'wind';
	'unknown';
	'unknown';
	'nuclear';
	'ng';
	'hydro';
	'hydro';
	'hydro';
	'hydro';
	'ng';
	'ng';
	'ng';
	'ng';
	'ng';
	'ng';
	'unknown';
	'unknown';
	'unknown';
	'ng';
	'ng';
	'ng';
	'ng';
	'ng';
	'oil';
	'ng';
	'ng';
	'refuse';
	'refuse';
	'oil';
	'oil';
	'ng';
	'ng';
	'ng';
	'hydro';
	'hydro';
	'unknown';
	'ng';
	'ng';
	'ng';
	'solar';
	'solar';
	'unknown';
	'unknown';
	'unknown';
	'ng';
	'unknown';
	'solar';
	'unknown';
	'unknown';
	'wind';
	'wind';
	'ng';
	'ng';
	'ng';
	'biomass';
	'unknown';
	'ng';
	'ng';
	'biomass';
	'biomass';
	'hydro';
	'hydro';
	'hydro';
	'hydro';
	'hydro';
	'hydro';
	'hydro';
	'hydro';
	'hydro';
	'hydro';
	'hydro';
	'hydro';
	'hydro';
	'hydro';
	'solar';
	'biomass';
	'hydro';
	'hydro';
	'biomass';
	'biomass';
	'biomass';
	'refuse';
	'ng';
	'ng';
	'ng';
	'ng';
	'ng';
	'hydro';
	'hydro';
	'refuse';
	'ng';
	'ng';
	'biomass';
	'wind';
	'ng';
	'hydro';
	'hydro';
	'hydro';
	'hydro';
	'hydro';
	'hydro';
	'hydro';
	'unknown';
	'unknown';
	'unknown';
	'unknown';
	'unknown';
	'unknown';
	'unknown';
	'unknown';
	'unknown';
	'unknown';
	'storage';
	'hydro';
	'hydro';
	'storage';
	'ng';
	'ng';
	'hydro';
	'hydro';
	'hydro';
	'hydro';
	'hydro';
	'ng';
	'ng';
	'refuse';
	'refuse';
	'unknown';
	'ng';
	'ng';
	'ng';
	'ng';
	'ng';
	'ng';
	'ng';
	'unknown';
	'refuse';
	'coal';
	'coal';
	'coal';
	'coal';
	'ng';
	'ng';
	'ng';
	'ng';
	'ng';
	'ng';
	'ng';
	'ng';
	'coal';
	'coal';
	'unknown';
	'unknown';
	'unknown';
	'coal';
	'ng';
	'ng';
	'coal';
	'ng';
	'ng';
	'oil';
	'ng';
	'oil';
	'ng';
	'unknown';
	'unknown';
	'unknown';
	'solar';
	'unknown';
	'wind';
	'unknown';
	'unknown';
	'unknown';
	'unknown';
	'unknown';
	'biomass';
	'biomass';
	'biomass';
	'biomass';
	'biomass';
	'biomass';
	'wind';
	'wind';
	'wind';
	'wind';
	'ng';
	'unknown';
	'unknown';
	'unknown';
	'unknown';
	'unknown';
	'unknown';
	'unknown';
	'unknown';
	'unknown';
	'unknown';
	'biomass';
	'ng';
	'ng';
	'hydro';
	'unknown';
	'hydro';
	'hydro';
	'hydro';
	'hydro';
	'hydro';
	'hydro';
	'hydro';
	'hydro';
	'hydro';
	'biomass';
	'solar';
	'hydro';
	'solar';
	'hydro';
	'unknown';
	'unknown';
	'hydro';
	'hydro';
	'hydro';
	'hydro';
	'hydro';
	'hydro';
	'hydro';
	'hydro';
	'biomass';
	'biomass';
	'biomass';
	'hydro';
	'hydro';
	'hydro';
	'ng';
	'ng';
	'ng';
	'unknown';
	'unknown';
	'oil';
	'oil';
	'hydro';
	'hydro';
	'hydro';
	'ng';
	'ng';
	'ng';
	'hydro';
	'hydro';
	'hydro';
	'unknown';
	'unknown';
	'unknown';
	'ng';
	'ng';
	'ng';
	'ng';
	'refuse';
	'ng';
	'ng';
	'refuse';
	'ng';
	'coal';
	'hydro';
	'hydro';
	'hydro';
	'hydro';
	'hydro';
	'hydro';
	'ng';
	'ng';
	'ng';
	'hydro';
	'hydro';
	'coal';
	'hydro';
	'hydro';
	'hydro';
	'hydro';
	'hydro';
	'hydro';
	'hydro';
	'hydro';
	'hydro';
	'hydro';
	'hydro';
	'hydro';
	'hydro';
	'hydro';
	'hydro';
	'hydro';
	'hydro';
	'hydro';
	'oil';
	'ng';
	'ng';
	'ng';
	'ng';
	'wind';
	'unknown';
	'ng';
	'ng';
	'hydro';
	'hydro';
	'solar';
	'coal';
	'ng';
	'ng';
	'ng';
	'hydro';
	'hydro';
	'coal';
	'ng';
	'ng';
	'ng';
	'ng';
	'ng';
	'ng';
	'ng';
	'ng';
	'ng';
	'ng';
	'ng';
	'ng';
	'ng';
	'unknown';
	'unknown';
	'unknown';
	'unknown';
	'unknown';
	'ng';
	'ng';
	'ng';
	'ng';
	'ng';
	'biomass';
	'biomass';
	'biomass';
	'biomass';
	'biomass';
	'biomass';
	'biomass';
	'biomass';
	'biomass';
	'biomass';
	'biomass';
	'biomass';
	'biomass';
	'hydro';
	'hydro';
	'ng';
	'unknown';
	'ng';
	'hydro';
	'hydro';
	'ng';
	'ng';
	'ng';
	'ng';
	'ng';
	'unknown';
	'unknown';
	'unknown';
	'unknown';
	'unknown';
	'unknown';
	'refuse';
	'ng';
	'refuse';
	'hydro';
	'hydro';
	'oil';
	'unknown';
	'hydro';
	'hydro';
	'hydro';
	'hydro';
	'hydro';
	'hydro';
	'hydro';
	'ng';
	'ng';
	'oil';
	'oil';
	'oil';
	'oil';
	'unknown';
	'nuclear';
	'unknown';
	'nuclear';
	'unknown';
	'unknown';
	'unknown';
	'unknown';
	'unknown';
	'unknown';
	'unknown';
	'unknown';
	'unknown';
	'unknown';
	'unknown';
	'ng';
	'refuse';
	'ng';
	'unknown';
	'hydro';
	'hydro';
	'ng';
	'ng';
	'unknown';
	'unknown';
	'unknown';
	'biomass';
	'ng';
	'unknown';
	'unknown';
	'unknown';
	'unknown';
	'ng';
	'ng';
	'biomass';
	'biomass';
	'ng';
	'ng';
	'ng';
	'ng';
	'ng';
	'unknown';
	'ng';
	'ng';
	'ng';
	'oil';
	'unknown';
	'unknown';
	'unknown';
	'unknown';
	'unknown';
	'hydro';
	'hydro';
	'hydro';
	'refuse';
	'unknown';
	'refuse';
	'ng';
	'ng';
	'ng';
	'ng';
	'ng';
	'oil';
	'oil';
	'oil';
	'oil';
	'oil';
	'ng';
	'ng';
	'ng';
	'ng';
	'unknown';
	'ng';
	'ng';
	'unknown';
	'ng';
	'ng';
	'ng';
	'ng';
	'ng';
	'hydro';
	'hydro';
	'hydro';
	'hydro';
	'hydro';
	'hydro';
	'hydro';
	'hydro';
	'hydro';
	'hydro';
	'biomass';
	'biomass';
	'hydro';
	'hydro';
	'hydro';
	'ng';
	'unknown';
	'ng';
	'hydro';
	'unknown';
	'unknown';
	'ng';
	'unknown';
	'unknown';
	'oil';
	'oil';
	'oil';
	'oil';
	'oil';
	'oil';
	'oil';
	'oil';
	'oil';
	'oil';
	'oil';
	'hydro';
	'hydro';
	'hydro';
	'hydro';
	'ng';
	'ng';
	'oil';
	'refuse';
	'ng';
	'ng';
	'coal';
	'coal';
	'oil';
	'solar';
	'solar';
	'ng';
	'hydro';
	'hydro';
	'biomass';
	'unknown';
	'hydro';
	'ng';
	'unknown';
	'hydro';
	'ng';
	'ng';
	'coal';
	'coal';
	'coal';
	'coal';
	'refuse';
	'oil';
	'oil';
	'hydro';
	'hydro';
	'hydro';
	'hydro';
	'hydro';
	'hydro';
	'ng';
	'ng';
	'ng';
	'ng';
	'ng';
	'ng';
	'unknown';
	'ng';
	'ng';
	'ng';
	'unknown';
	'unknown';
	'ng';
	'ng';
	'ng';
	'ng';
	'unknown';
	'unknown';
	'ng';
	'ng';
	'ng';
	'unknown';
	'unknown';
	'ng';
	'ng';
	'ng';
	'unknown';
	'unknown';
	'ng';
	'ng';
	'ng';
	'ng';
	'ng';
	'ng';
	'ng';
	'ng';
	'ng';
	'ng';
	'ng';
	'ng';
	'ng';
	'ng';
	'ng';
	'ng';
	'ng';
	'ng';
	'ng';
	'ng';
	'ng';
	'ng';
	'ng';
	'ng';
	'ng';
	'ng';
	'ng';
	'ng';
	'ng';
	'ng';
	'ng';
	'ng';
	'unknown';
	'ng';
	'ng';
	'ng';
	'ng';
	'ng';
	'ng';
	'unknown';
	'refuse';
	'ng';
	'ng';
	'ng';
	'ng';
	'ng';
	'ng';
	'ng';
	'unknown';
	'unknown';
	'oil';
	'oil';
	'ng';
	'ng';
	'nuclear';
	'ng';
	'ng';
	'ng';
	'ng';
	'ng';
	'unknown';
	'unknown';
	'unknown';
	'ng';
	'ng';
	'ng';
	'ng';
	'ng';
	'ng';
	'ng';
	'ng';
	'ng';
	'ng';
	'ng';
	'ng';
	'ng';
	'ng';
	'ng';
	'ng';
	'ng';
	'ng';
	'oil';
	'oil';
	'oil';
	'ng';
	'ng';
	'ng';
	'ng';
	'ng';
	'ng';
	'ng';
	'ng';
	'ng';
	'ng';
	'ng';
	'ng';
	'ng';
	'ng';
	'ng';
	'ng';
	'ng';
	'ng';
	'ng';
	'ng';
	'ng';
	'ng';
	'ng';
	'ng';
	'ng';
	'ng';
	'ng';
	'ng';
	'ng';
	'ng';
	'ng';
	'ng';
	'ng';
	'ng';
	'ng';
	'ng';
	'ng';
	'ng';
	'ng';
	'oil';
	'ng';
	'ng';
	'ng';
	'ng';
	'ng';
	'ng';
	'ng';
	'ng';
	'biomass';
	'ng';
	'ng';
	'oil';
	'oil';
	'ng';
	'ng';
	'refuse';
	'ng';
	'ng';
	'ng';
	'ng';
	'ng';
	'unknown';
	'ng';
	'ng';
	'ng';
	'ng';
	'unknown';
	'ng';
	'refuse';
	'ng';
	'ng';
	'ng';
	'ng';
	'oil';
	'ng';
	'ng';
	'refuse';
	'ng';
	'ng';
	'ng';
	'ng';
	'oil';
	'ng';
	'ng';
	'unknown';
	'unknown';
	'unknown';
	'ng';
	'solar';
	'oil';
	'oil';
	'oil';
	'oil';
	'oil';
	'oil';
	'oil';
	'oil';
	'oil';
	'oil';
	'ng';
	'ng';
	'ng';
	'ng';
	'ng';
	'ng';
	'oil';
	'oil';
	'oil';
	'oil';
	'oil';
	'biomass';
	'oil';
	'oil';
	'oil';
	'oil';
	'oil';
	'oil';
	'wind';
	'wind';
	'wind';
	'coal';
	'wind';
	'ng';
	'coal';
	'biomass';
	'hydro';
	'hydro';
	'hydro';
	'hydro';
	'hydro';
	'storage';
	'wind';
	'ng';
	'unknown';
	'ng';
	'ng';
	'unknown';
	'hydro';
	'wind';
	'coal';
	'biomass';
	'biomass';
	'biomass';
	'biomass';
	'biomass';
	'biomass';
	'hydro';
	'biomass';
	'biomass';
	'biomass';
	'biomass';
	'biomass';
	'biomass';
	'biomass';
	'biomass';
	'biomass';
	'biomass';
	'biomass';
	'biomass';
	'hydro';
	'coal';
	'ng';
	'ng';
	'hydro';
	'hydro';
	'ng';
	'ng';
	'ng';
	'ng';
	'coal';
	'coal';
	'coal';
	'hydro';
	'hydro';
	'hydro';
	'ng';
	'ng';
	'ng';
	'ng';
	'ng';
	'hydro';
	'hydro';
	'hydro';
	'hydro';
	'hydro';
	'hydro';
	'hydro';
	'hydro';
	'hydro';
	'hydro';
	'hydro';
	'hydro';
	'hydro';
	'hydro';
	'hydro';
	'hydro';
	'hydro';
	'hydro';
	'hydro';
	'hydro';
	'hydro';
	'hydro';
	'hydro';
	'biomass';
	'hydro';
	'ng';
	'ng';
	'ng';
	'biomass';
	'biomass';
	'biomass';
	'biomass';
	'biomass';
	'biomass';
	'biomass';
	'unknown';
	'coal';
	'coal';
	'coal';
	'coal';
	'biomass';
	'biomass';
	'biomass';
	'biomass';
	'ng';
	'ng';
	'ng';
	'ng';
	'ng';
	'coal';
	'coal';
	'hydro';
	'unknown';
	'ng';
	'ng';
	'hydro';
	'biomass';
	'biomass';
	'biomass';
	'hydro';
	'hydro';
	'ng';
	'coal';
	'ng';
	'ng';
	'coal';
	'biomass';
	'biomass';
	'hydro';
	'hydro';
	'hydro';
	'hydro';
	'refuse';
	'refuse';
	'hydro';
	'hydro';
	'hydro';
	'hydro';
	'hydro';
	'hydro';
	'hydro';
	'hydro';
	'hydro';
	'hydro';
	'hydro';
	'hydro';
	'hydro';
	'hydro';
	'hydro';
	'hydro';
	'hydro';
	'biomass';
	'hydro';
	'hydro';
	'hydro';
	'hydro';
	'hydro';
	'hydro';
	'hydro';
	'hydro';
	'wind';
	'nuclear';
	'nuclear';
	'oil';
	'oil';
	'refuse';
	'coal';
	'ng';
	'ng';
	'hydro';
	'hydro';
	'hydro';
	'wind';
	'ng';
	'ng';
	'ng';
	'ng';
	'ng';
	'ng';
	'ng';
	'ng';
	'ng';
	'unknown';
	'ng';
	'ng';
	'hydro';
	'hydro';
	'hydro';
	'hydro';
	'hydro';
	'hydro';
	'hydro';
	'hydro';
	'hydro';
	'ng';
	'ng';
	'hydro';
	'hydro';
	'biomass';
	'hydro';
	'coal';
	'hydro';
	'hydro';
	'hydro';
	'wind';
	'hydro';
	'hydro';
	'hydro';
	'hydro';
	'hydro';
	'hydro';
	'hydro';
	'hydro';
	'hydro';
	'hydro';
	'hydro';
	'hydro';
	'hydro';
	'hydro';
	'hydro';
	'hydro';
	'hydro';
	'hydro';
	'hydro';
	'hydro';
	'hydro';
	'hydro';
	'hydro';
	'hydro';
	'hydro';
	'hydro';
	'hydro';
	'hydro';
	'hydro';
	'hydro';
	'hydro';
	'ng';
	'ng';
	'hydro';
	'hydro';
	'hydro';
	'biomass';
	'hydro';
	'hydro';
	'hydro';
	'hydro';
	'hydro';
	'hydro';
	'hydro';
	'hydro';
	'hydro';
	'hydro';
	'hydro';
	'hydro';
	'hydro';
	'hydro';
	'hydro';
	'hydro';
	'hydro';
	'hydro';
	'hydro';
	'hydro';
	'hydro';
	'hydro';
	'hydro';
	'hydro';
	'hydro';
	'hydro';
	'hydro';
	'hydro';
	'hydro';
	'hydro';
	'hydro';
	'hydro';
	'hydro';
	'hydro';
	'hydro';
	'hydro';
	'hydro';
	'hydro';
	'hydro';
	'hydro';
	'hydro';
	'hydro';
	'hydro';
	'hydro';
	'hydro';
	'hydro';
	'hydro';
	'hydro';
	'hydro';
	'hydro';
	'hydro';
	'hydro';
	'hydro';
	'hydro';
	'hydro';
	'hydro';
	'hydro';
	'hydro';
	'hydro';
	'hydro';
	'hydro';
	'hydro';
	'hydro';
	'hydro';
	'hydro';
	'hydro';
	'hydro';
	'hydro';
	'hydro';
	'hydro';
	'hydro';
	'hydro';
	'hydro';
	'hydro';
	'hydro';
	'hydro';
	'hydro';
	'hydro';
	'hydro';
	'hydro';
	'hydro';
	'hydro';
	'hydro';
	'hydro';
	'ng';
	'ng';
	'oil';
	'hydro';
	'hydro';
	'unknown';
	'hydro';
	'hydro';
	'hydro';
	'hydro';
	'hydro';
	'hydro';
	'hydro';
	'hydro';
	'hydro';
	'hydro';
	'hydro';
	'hydro';
	'hydro';
	'hydro';
	'hydro';
	'hydro';
	'hydro';
	'hydro';
	'hydro';
	'ng';
	'ng';
	'ng';
	'ng';
	'ng';
	'ng';
	'ng';
	'ng';
	'ng';
	'ng';
	'hydro';
	'ng';
	'ng';
	'ng';
	'hydro';
	'biomass';
	'hydro';
	'hydro';
	'hydro';
	'hydro';
	'hydro';
	'hydro';
	'hydro';
	'hydro';
	'ng';
	'ng';
	'ng';
	'ng';
	'ng';
	'ng';
	'ng';
	'ng';
	'hydro';
	'ng';
	'biomass';
	'hydro';
	'hydro';
	'hydro';
	'hydro';
	'hydro';
	'unknown';
	'unknown';
	'unknown';
	'hydro';
	'hydro';
	'hydro';
	'unknown';
	'hydro';
	'hydro';
	'biomass';
	'hydro';
	'hydro';
	'hydro';
	'hydro';
	'hydro';
	'wind';
	'hydro';
	'wind';
	'hydro';
	'hydro';
	'hydro';
	'hydro';
	'hydro';
	'hydro';
	'hydro';
	'hydro';
	'hydro';
	'hydro';
	'hydro';
	'hydro';
	'hydro';
	'hydro';
	'hydro';
	'hydro';
	'hydro';
	'hydro';
	'hydro';
	'hydro';
	'hydro';
	'refuse';
	'hydro';
	'hydro';
	'hydro';
	'hydro';
	'biomass';
	'hydro';
	'hydro';
	'hydro';
	'hydro';
	'hydro';
	'hydro';
	'hydro';
	'hydro';
	'hydro';
	'biomass';
	'hydro';
	'hydro';
...